xflr5 v6.60

Plane Name
T1-10.0 m/s-Panel-Inviscid
QInf  =   10.000000 m/s
Alpha =    0.000000
Beta  =    0.000°
Phi   =    0.000°
Ctrl  =    0.000
CL    =    0.280980
Cy    =   -0.000000
Cd    =    0.001854     ICd   =    0.001854     PCd   =    0.000000
Cl   = -4.11654e-15
Cm   =   -0.400971
ICn   =    0.000000     PCn   =    0.000000 
XCP   =    3.227665     YCP   =    0.000000     ZCP   =    0.401462  
XNP   =    0.000000
Bending = 2776.228520

Main Wing
  y-span        Chord      Ai         Cl        PCd          ICd        CmGeom    CmAirf@chord/4    XTrtop    XTrBot      XCP       BM
  -14.0510     1.0536    -2.357    0.103958    0.000000    0.004280   -0.570401   -0.032505     0.0000    0.0000    0.5446    0.0000
  -13.9550     1.0677    -1.726    0.168422    0.000000    0.005074   -0.847351   -0.050257     0.0000    0.0000    0.5526    0.0317
  -13.7637     1.0960    -1.211    0.219000    0.000000    0.004630   -1.037040   -0.059058     0.0000    0.0000    0.5290    0.4057
  -13.4783     1.1382    -0.856    0.253417    0.000000    0.003785   -1.147742   -0.065421     0.0000    0.0000    0.5142    1.9897
  -13.1009     1.1939    -0.622    0.275406    0.000000    0.002991   -1.172189   -0.068940     0.0000    0.0000    0.5042    6.3528
  -12.6341     1.2629    -0.474    0.288743    0.000000    0.002387   -1.135751   -0.070757     0.0000    0.0000    0.4978   15.8256
  -12.0809     1.3447    -0.382    0.296278    0.000000    0.001975   -1.062452   -0.071696     0.0000    0.0000    0.4942   33.5190
  -11.4451     1.4386    -0.327    0.299959    0.000000    0.001714   -0.969626   -0.072185     0.0000    0.0000    0.4926   63.3186
  -10.7312     1.5441    -0.298    0.301046    0.000000    0.001566   -0.868813   -0.072435     0.0000    0.0000    0.4925   109.8545
   -9.9440     1.6605    -0.286    0.300327    0.000000    0.001498   -0.767299   -0.072552     0.0000    0.0000    0.4936   178.4385
   -9.0889     1.7868    -0.286    0.298275    0.000000    0.001487   -0.669469   -0.072589     0.0000    0.0000    0.4955   274.9590
   -8.1717     1.9224    -0.294    0.295154    0.000000    0.001514   -0.577782   -0.072574     0.0000    0.0000    0.4983   405.7262
   -7.1986     2.0662    -0.309    0.291087    0.000000    0.001570   -0.493460   -0.072521     0.0000    0.0000    0.5019   577.2615
   -6.1764     2.2173    -0.329    0.286087    0.000000    0.001644   -0.416947   -0.072436     0.0000    0.0000    0.5064   796.0306
   -5.1120     2.3745    -0.354    0.280073    0.000000    0.001728   -0.348233   -0.072323     0.0000    0.0000    0.5120   1068.1210
   -4.0127     2.5370    -0.380    0.272859    0.000000    0.001812   -0.287065   -0.072191     0.0000    0.0000    0.5190   1398.8706
   -2.8859     2.7035    -0.407    0.264114    0.000000    0.001875   -0.233104   -0.072065     0.0000    0.0000    0.5283   1792.4528
   -1.7395     2.8729    -0.423    0.253301    0.000000    0.001870   -0.186101   -0.072064     0.0000    0.0000    0.5415   2251.4231
   -0.5812     3.0441    -0.385    0.239576    0.000000    0.001610   -0.146326   -0.072685     0.0000    0.0000    0.5632   2776.2285
    0.5812     3.0441    -0.385    0.239576    0.000000    0.001610   -0.146326   -0.072685     0.0000    0.0000    0.5632   2776.2285
    1.7395     2.8729    -0.423    0.253301    0.000000    0.001870   -0.186101   -0.072064     0.0000    0.0000    0.5415   2251.4231
    2.8859     2.7035    -0.407    0.264114    0.000000    0.001875   -0.233104   -0.072065     0.0000    0.0000    0.5283   1792.4528
    4.0127     2.5370    -0.380    0.272859    0.000000    0.001812   -0.287065   -0.072191     0.0000    0.0000    0.5190   1398.8706
    5.1120     2.3745    -0.354    0.280073    0.000000    0.001728   -0.348233   -0.072323     0.0000    0.0000    0.5120   1068.1210
    6.1764     2.2173    -0.329    0.286087    0.000000    0.001644   -0.416947   -0.072436     0.0000    0.0000    0.5064   796.0306
    7.1986     2.0662    -0.309    0.291087    0.000000    0.001570   -0.493460   -0.072521     0.0000    0.0000    0.5019   577.2615
    8.1717     1.9224    -0.294    0.295154    0.000000    0.001514   -0.577782   -0.072574     0.0000    0.0000    0.4983   405.7262
    9.0889     1.7868    -0.286    0.298275    0.000000    0.001487   -0.669469   -0.072589     0.0000    0.0000    0.4955   274.9590
    9.9440     1.6605    -0.286    0.300327    0.000000    0.001498   -0.767299   -0.072552     0.0000    0.0000    0.4936   178.4385
   10.7312     1.5441    -0.298    0.301046    0.000000    0.001566   -0.868813   -0.072435     0.0000    0.0000    0.4925   109.8545
   11.4451     1.4386    -0.327    0.299959    0.000000    0.001714   -0.969626   -0.072185     0.0000    0.0000    0.4926   63.3186
   12.0809     1.3447    -0.382    0.296278    0.000000    0.001975   -1.062452   -0.071696     0.0000    0.0000    0.4942   33.5190
   12.6341     1.2629    -0.474    0.288743    0.000000    0.002387   -1.135751   -0.070757     0.0000    0.0000    0.4978   15.8256
   13.1009     1.1939    -0.622    0.275406    0.000000    0.002991   -1.172189   -0.068940     0.0000    0.0000    0.5042    6.3528
   13.4783     1.1382    -0.856    0.253417    0.000000    0.003785   -1.147742   -0.065421     0.0000    0.0000    0.5142    1.9897
   13.7637     1.0960    -1.211    0.219000    0.000000    0.004630   -1.037040   -0.059058     0.0000    0.0000    0.5290    0.4057
   13.9550     1.0677    -1.726    0.168422    0.000000    0.005074   -0.847351   -0.050257     0.0000    0.0000    0.5526    0.0317
   14.0510     1.0536    -2.357    0.103958    0.000000    0.004280   -0.570401   -0.032505     0.0000    0.0000    0.5446    0.0000


Main Wing Cp Coefficients
 Panel     CtrlPt.x        CtrlPt.y        CtrlPt.z       Nx      Ny       Nz        Area       Cp
Main WingCp Coefficients
Strip 1
  13       5.957e+00      -1.405e+01       3.192e-01          -0.057          -0.034          -0.998       7.371e-04          0.1466
  14       5.927e+00      -1.405e+01       3.206e-01          -0.041          -0.031          -0.999       2.167e-03          0.1546
  15       5.869e+00      -1.405e+01       3.195e-01           0.056          -0.011          -0.998       3.474e-03          0.1392
  16       5.785e+00      -1.405e+01       3.125e-01           0.104           0.000          -0.995       4.596e-03          0.0809
  17       5.681e+00      -1.405e+01       3.002e-01           0.129           0.006          -0.992       5.454e-03          0.0253
  18       5.564e+00      -1.405e+01       2.851e-01           0.126           0.005          -0.992       5.979e-03         -0.0412
  19       5.438e+00      -1.405e+01       2.711e-01           0.095          -0.003          -0.995       6.135e-03         -0.1146
  20       5.313e+00      -1.405e+01       2.635e-01           0.025          -0.023          -0.999       5.931e-03         -0.1661
  21       5.195e+00      -1.405e+01       2.642e-01          -0.040          -0.043          -0.998       5.412e-03         -0.1767
  22       5.092e+00      -1.405e+01       2.711e-01          -0.097          -0.061          -0.993       4.596e-03         -0.1782
  23       5.008e+00      -1.405e+01       2.818e-01          -0.164          -0.083          -0.983       3.523e-03         -0.1999
  24       4.949e+00      -1.405e+01       2.950e-01          -0.301          -0.128          -0.945       2.285e-03         -0.2542
  25       4.919e+00      -1.405e+01       3.105e-01          -0.713          -0.264          -0.650       1.123e-03          0.2576
  26       4.919e+00      -1.405e+01       3.312e-01          -0.816          -0.274           0.509       1.463e-03          0.5421
  27       4.949e+00      -1.405e+01       3.550e-01          -0.447          -0.138           0.884       2.458e-03         -0.1989
  28       5.008e+00      -1.405e+01       3.773e-01          -0.288          -0.083           0.954       3.642e-03         -0.2770
  29       5.092e+00      -1.405e+01       3.974e-01          -0.188          -0.050           0.981       4.664e-03         -0.3062
  30       5.195e+00      -1.405e+01       4.121e-01          -0.099          -0.021           0.995       5.435e-03         -0.3268
  31       5.313e+00      -1.405e+01       4.181e-01          -0.005           0.007           1.000       5.925e-03         -0.3222
  32       5.438e+00      -1.405e+01       4.124e-01           0.094           0.035           0.995       6.130e-03         -0.2601
  33       5.564e+00      -1.405e+01       3.967e-01           0.155           0.052           0.987       6.001e-03         -0.1663
  34       5.681e+00      -1.405e+01       3.761e-01           0.190           0.060           0.980       5.509e-03         -0.0840
  35       5.785e+00      -1.405e+01       3.553e-01           0.204           0.063           0.977       4.671e-03         -0.0243
  36       5.869e+00      -1.405e+01       3.381e-01           0.201           0.063           0.978       3.543e-03          0.0084
  37       5.927e+00      -1.405e+01       3.262e-01           0.194           0.061           0.979       2.208e-03          0.0513
  38       5.957e+00      -1.405e+01       3.203e-01           0.193           0.061           0.979       7.505e-04          0.0885
Strip 2
  39       5.938e+00      -1.395e+01       3.170e-01          -0.057          -0.034          -0.998       2.236e-03          0.2088
  40       5.907e+00      -1.395e+01       3.184e-01          -0.041          -0.031          -0.999       6.573e-03          0.2324
  41       5.848e+00      -1.395e+01       3.173e-01           0.056          -0.011          -0.998       1.054e-02          0.2286
  42       5.763e+00      -1.395e+01       3.103e-01           0.104           0.000          -0.995       1.394e-02          0.1549
  43       5.658e+00      -1.395e+01       2.978e-01           0.129           0.006          -0.992       1.654e-02          0.0687
  44       5.539e+00      -1.395e+01       2.824e-01           0.126           0.005          -0.992       1.814e-02         -0.0325
  45       5.412e+00      -1.395e+01       2.683e-01           0.095          -0.003          -0.995       1.861e-02         -0.1411
  46       5.285e+00      -1.395e+01       2.606e-01           0.025          -0.023          -0.999       1.799e-02         -0.2159
  47       5.166e+00      -1.395e+01       2.613e-01          -0.040          -0.043          -0.998       1.642e-02         -0.2317
  48       5.060e+00      -1.395e+01       2.683e-01          -0.097          -0.061          -0.993       1.394e-02         -0.2285
  49       4.976e+00      -1.395e+01       2.791e-01          -0.164          -0.083          -0.983       1.069e-02         -0.2340
  50       4.916e+00      -1.395e+01       2.925e-01          -0.301          -0.128          -0.945       6.932e-03         -0.2455
  51       4.886e+00      -1.395e+01       3.082e-01          -0.713          -0.264          -0.650       3.406e-03          0.2722
  52       4.886e+00      -1.395e+01       3.292e-01          -0.816          -0.274           0.509       4.437e-03          0.6007
  53       4.916e+00      -1.395e+01       3.533e-01          -0.447          -0.138           0.884       7.456e-03         -0.1819
  54       4.976e+00      -1.395e+01       3.759e-01          -0.288          -0.083           0.954       1.105e-02         -0.3311
  55       5.060e+00      -1.395e+01       3.963e-01          -0.188          -0.050           0.981       1.415e-02         -0.4004
  56       5.166e+00      -1.395e+01       4.112e-01          -0.099          -0.021           0.995       1.649e-02         -0.4394
  57       5.285e+00      -1.395e+01       4.172e-01          -0.005           0.007           1.000       1.797e-02         -0.4387
  58       5.412e+00      -1.395e+01       4.115e-01           0.094           0.035           0.995       1.859e-02         -0.3593
  59       5.539e+00      -1.395e+01       3.956e-01           0.155           0.052           0.987       1.820e-02         -0.2349
  60       5.658e+00      -1.395e+01       3.747e-01           0.190           0.060           0.980       1.671e-02         -0.1216
  61       5.763e+00      -1.395e+01       3.537e-01           0.204           0.063           0.977       1.417e-02         -0.0302
  62       5.848e+00      -1.395e+01       3.362e-01           0.201           0.063           0.978       1.075e-02          0.0346
  63       5.907e+00      -1.395e+01       3.242e-01           0.194           0.061           0.979       6.699e-03          0.1058
  64       5.938e+00      -1.395e+01       3.181e-01           0.193           0.061           0.979       2.277e-03          0.1577
Strip 3
  65       5.899e+00      -1.376e+01       3.127e-01          -0.057          -0.034          -0.998       3.808e-03          0.2443
  66       5.868e+00      -1.376e+01       3.141e-01          -0.041          -0.031          -0.999       1.119e-02          0.2700
  67       5.807e+00      -1.376e+01       3.130e-01           0.056          -0.011          -0.998       1.794e-02          0.2659
  68       5.720e+00      -1.376e+01       3.058e-01           0.104           0.000          -0.995       2.374e-02          0.1852
  69       5.612e+00      -1.376e+01       2.930e-01           0.129           0.006          -0.992       2.817e-02          0.0848
  70       5.489e+00      -1.376e+01       2.772e-01           0.126           0.005          -0.992       3.088e-02         -0.0347
  71       5.359e+00      -1.376e+01       2.627e-01           0.095          -0.003          -0.995       3.169e-02         -0.1617
  72       5.229e+00      -1.376e+01       2.548e-01           0.025          -0.023          -0.999       3.064e-02         -0.2472
  73       5.106e+00      -1.376e+01       2.555e-01          -0.040          -0.043          -0.998       2.796e-02         -0.2595
  74       4.998e+00      -1.376e+01       2.627e-01          -0.097          -0.061          -0.993       2.374e-02         -0.2392
  75       4.911e+00      -1.376e+01       2.738e-01          -0.164          -0.083          -0.983       1.820e-02         -0.2189
  76       4.851e+00      -1.376e+01       2.875e-01          -0.301          -0.128          -0.945       1.181e-02         -0.1992
  77       4.819e+00      -1.376e+01       3.036e-01          -0.713          -0.264          -0.650       5.801e-03          0.3259
  78       4.819e+00      -1.376e+01       3.252e-01          -0.816          -0.274           0.509       7.556e-03          0.6337
  79       4.851e+00      -1.376e+01       3.500e-01          -0.447          -0.138           0.884       1.270e-02         -0.1707
  80       4.911e+00      -1.376e+01       3.732e-01          -0.288          -0.083           0.954       1.881e-02         -0.3519
  81       4.998e+00      -1.376e+01       3.940e-01          -0.188          -0.050           0.981       2.409e-02         -0.4598
  82       5.106e+00      -1.376e+01       4.094e-01          -0.099          -0.021           0.995       2.808e-02         -0.5290
  83       5.229e+00      -1.376e+01       4.155e-01          -0.005           0.007           1.000       3.061e-02         -0.5392
  84       5.359e+00      -1.376e+01       4.096e-01           0.094           0.035           0.995       3.167e-02         -0.4477
  85       5.489e+00      -1.376e+01       3.934e-01           0.155           0.052           0.987       3.100e-02         -0.2955
  86       5.612e+00      -1.376e+01       3.719e-01           0.190           0.060           0.980       2.846e-02         -0.1498
  87       5.720e+00      -1.376e+01       3.503e-01           0.204           0.063           0.977       2.413e-02         -0.0288
  88       5.807e+00      -1.376e+01       3.323e-01           0.201           0.063           0.978       1.830e-02          0.0575
  89       5.868e+00      -1.376e+01       3.200e-01           0.194           0.061           0.979       1.141e-02          0.1421
  90       5.899e+00      -1.376e+01       3.138e-01           0.193           0.061           0.979       3.877e-03          0.1997
Strip 4
  91       5.841e+00      -1.347e+01       3.063e-01          -0.057          -0.034          -0.998       5.499e-03          0.2514
  92       5.809e+00      -1.347e+01       3.077e-01          -0.041          -0.031          -0.999       1.616e-02          0.2780
  93       5.745e+00      -1.347e+01       3.066e-01           0.056          -0.011          -0.998       2.591e-02          0.2746
  94       5.655e+00      -1.348e+01       2.990e-01           0.104           0.000          -0.995       3.428e-02          0.1925
  95       5.543e+00      -1.348e+01       2.858e-01           0.129           0.006          -0.992       4.068e-02          0.0882
  96       5.416e+00      -1.348e+01       2.694e-01           0.126           0.005          -0.992       4.459e-02         -0.0368
  97       5.281e+00      -1.348e+01       2.543e-01           0.095          -0.003          -0.995       4.576e-02         -0.1682
  98       5.145e+00      -1.348e+01       2.461e-01           0.025          -0.023          -0.999       4.424e-02         -0.2539
  99       5.018e+00      -1.348e+01       2.469e-01          -0.040          -0.043          -0.998       4.037e-02         -0.2608
 100       4.906e+00      -1.348e+01       2.543e-01          -0.097          -0.061          -0.993       3.428e-02         -0.2322
 101       4.816e+00      -1.348e+01       2.658e-01          -0.164          -0.083          -0.983       2.628e-02         -0.2027
 102       4.752e+00      -1.348e+01       2.801e-01          -0.301          -0.128          -0.945       1.705e-02         -0.1691
 103       4.720e+00      -1.348e+01       2.968e-01          -0.713          -0.264          -0.650       8.377e-03          0.3608
 104       4.720e+00      -1.347e+01       3.192e-01          -0.816          -0.274           0.509       1.091e-02          0.6257
 105       4.752e+00      -1.347e+01       3.449e-01          -0.447          -0.138           0.884       1.833e-02         -0.1900
 106       4.816e+00      -1.347e+01       3.691e-01          -0.288          -0.083           0.954       2.716e-02         -0.3744
 107       4.906e+00      -1.347e+01       3.907e-01          -0.188          -0.050           0.981       3.478e-02         -0.4924
 108       5.018e+00      -1.347e+01       4.066e-01          -0.099          -0.021           0.995       4.054e-02         -0.5747
 109       5.145e+00      -1.347e+01       4.130e-01          -0.005           0.007           1.000       4.420e-02         -0.5941
 110       5.281e+00      -1.347e+01       4.069e-01           0.094           0.035           0.995       4.573e-02         -0.5014
 111       5.416e+00      -1.347e+01       3.900e-01           0.155           0.052           0.987       4.476e-02         -0.3388
 112       5.543e+00      -1.347e+01       3.678e-01           0.190           0.060           0.980       4.110e-02         -0.1792
 113       5.655e+00      -1.347e+01       3.453e-01           0.204           0.063           0.977       3.484e-02         -0.0450
 114       5.745e+00      -1.347e+01       3.266e-01           0.201           0.063           0.978       2.643e-02          0.0515
 115       5.809e+00      -1.347e+01       3.138e-01           0.194           0.061           0.979       1.647e-02          0.1433
 116       5.841e+00      -1.347e+01       3.074e-01           0.193           0.061           0.979       5.599e-03          0.2047
Strip 5
 117       5.765e+00      -1.310e+01       2.977e-01          -0.057          -0.034          -0.998       7.348e-03          0.2514
 118       5.731e+00      -1.310e+01       2.993e-01          -0.041          -0.031          -0.999       2.160e-02          0.2787
 119       5.664e+00      -1.310e+01       2.981e-01           0.056          -0.011          -0.998       3.462e-02          0.2759
 120       5.569e+00      -1.310e+01       2.902e-01           0.104           0.000          -0.995       4.581e-02          0.1939
 121       5.452e+00      -1.310e+01       2.762e-01           0.129           0.006          -0.992       5.436e-02          0.0894
 122       5.318e+00      -1.310e+01       2.590e-01           0.126           0.005          -0.992       5.959e-02         -0.0359
 123       5.176e+00      -1.310e+01       2.432e-01           0.095          -0.003          -0.995       6.115e-02         -0.1669
 124       5.035e+00      -1.310e+01       2.346e-01           0.025          -0.023          -0.999       5.912e-02         -0.2510
 125       4.901e+00      -1.310e+01       2.354e-01          -0.040          -0.043          -0.998       5.396e-02         -0.2554
 126       4.784e+00      -1.310e+01       2.432e-01          -0.097          -0.061          -0.993       4.582e-02         -0.2238
 127       4.689e+00      -1.310e+01       2.553e-01          -0.164          -0.083          -0.983       3.512e-02         -0.1900
 128       4.622e+00      -1.310e+01       2.702e-01          -0.301          -0.128          -0.945       2.279e-02         -0.1473
 129       4.588e+00      -1.310e+01       2.878e-01          -0.712          -0.264          -0.650       1.120e-02          0.3863
 130       4.588e+00      -1.310e+01       3.113e-01          -0.816          -0.274           0.508       1.457e-02          0.6119
 131       4.622e+00      -1.310e+01       3.383e-01          -0.447          -0.138           0.884       2.449e-02         -0.2114
 132       4.689e+00      -1.310e+01       3.636e-01          -0.288          -0.083           0.954       3.629e-02         -0.3932
 133       4.784e+00      -1.310e+01       3.863e-01          -0.188          -0.050           0.981       4.648e-02         -0.5129
 134       4.901e+00      -1.310e+01       4.030e-01          -0.099          -0.021           0.995       5.418e-02         -0.5985
 135       5.035e+00      -1.310e+01       4.097e-01          -0.005           0.007           1.000       5.907e-02         -0.6209
 136       5.176e+00      -1.310e+01       4.033e-01           0.094           0.035           0.995       6.111e-02         -0.5280
 137       5.318e+00      -1.310e+01       3.856e-01           0.155           0.052           0.987       5.983e-02         -0.3620
 138       5.452e+00      -1.310e+01       3.622e-01           0.190           0.060           0.980       5.493e-02         -0.1971
 139       5.569e+00      -1.310e+01       3.387e-01           0.204           0.063           0.977       4.657e-02         -0.0574
 140       5.664e+00      -1.310e+01       3.191e-01           0.201           0.063           0.978       3.532e-02          0.0438
 141       5.731e+00      -1.310e+01       3.057e-01           0.194           0.061           0.979       2.202e-02          0.1392
 142       5.765e+00      -1.310e+01       2.989e-01           0.193           0.061           0.979       7.482e-03          0.2025
Strip 6
 143       5.670e+00      -1.263e+01       2.872e-01          -0.057          -0.034          -0.998       9.392e-03          0.2507
 144       5.634e+00      -1.263e+01       2.888e-01          -0.041          -0.031          -0.999       2.761e-02          0.2784
 145       5.564e+00      -1.263e+01       2.875e-01           0.056          -0.011          -0.998       4.425e-02          0.2762
 146       5.463e+00      -1.263e+01       2.791e-01           0.104           0.000          -0.995       5.854e-02          0.1946
 147       5.339e+00      -1.263e+01       2.644e-01           0.129           0.006          -0.992       6.947e-02          0.0906
 148       5.198e+00      -1.263e+01       2.462e-01           0.126           0.005          -0.992       7.616e-02         -0.0341
 149       5.048e+00      -1.263e+01       2.295e-01           0.095          -0.003          -0.995       7.815e-02         -0.1642
 150       4.898e+00      -1.263e+01       2.204e-01           0.025          -0.023          -0.999       7.556e-02         -0.2472
 151       4.756e+00      -1.263e+01       2.212e-01          -0.040          -0.043          -0.998       6.896e-02         -0.2503
 152       4.632e+00      -1.263e+01       2.295e-01          -0.097          -0.061          -0.993       5.856e-02         -0.2173
 153       4.532e+00      -1.263e+01       2.423e-01          -0.164          -0.083          -0.983       4.489e-02         -0.1811
 154       4.462e+00      -1.263e+01       2.581e-01          -0.301          -0.128          -0.945       2.913e-02         -0.1326
 155       4.425e+00      -1.263e+01       2.767e-01          -0.712          -0.264          -0.651       1.432e-02          0.4032
 156       4.425e+00      -1.263e+01       3.015e-01          -0.817          -0.274           0.508       1.862e-02          0.6006
 157       4.462e+00      -1.263e+01       3.301e-01          -0.447          -0.138           0.884       3.129e-02         -0.2273
 158       4.532e+00      -1.263e+01       3.568e-01          -0.288          -0.083           0.954       4.637e-02         -0.4060
 159       4.632e+00      -1.263e+01       3.809e-01          -0.188          -0.050           0.981       5.940e-02         -0.5254
 160       4.756e+00      -1.263e+01       3.986e-01          -0.099          -0.021           0.995       6.924e-02         -0.6116
 161       4.898e+00      -1.263e+01       4.057e-01          -0.005           0.007           1.000       7.549e-02         -0.6344
 162       5.048e+00      -1.263e+01       3.989e-01           0.094           0.035           0.995       7.810e-02         -0.5410
 163       5.198e+00      -1.263e+01       3.801e-01           0.155           0.052           0.987       7.647e-02         -0.3732
 164       5.339e+00      -1.263e+01       3.554e-01           0.190           0.060           0.980       7.020e-02         -0.2061
 165       5.463e+00      -1.263e+01       3.305e-01           0.204           0.063           0.977       5.952e-02         -0.0641
 166       5.564e+00      -1.263e+01       3.098e-01           0.201           0.063           0.978       4.514e-02          0.0389
 167       5.634e+00      -1.263e+01       2.956e-01           0.194           0.061           0.979       2.814e-02          0.1361
 168       5.670e+00      -1.263e+01       2.884e-01           0.193           0.061           0.979       9.563e-03          0.2003
Strip 7
 169       5.558e+00      -1.208e+01       2.746e-01          -0.057          -0.034          -0.998       1.165e-02          0.2503
 170       5.519e+00      -1.208e+01       2.764e-01          -0.041          -0.031          -0.999       3.426e-02          0.2782
 171       5.445e+00      -1.208e+01       2.750e-01           0.056          -0.011          -0.998       5.491e-02          0.2765
 172       5.338e+00      -1.208e+01       2.661e-01           0.104           0.000          -0.995       7.265e-02          0.1952
 173       5.205e+00      -1.208e+01       2.504e-01           0.129           0.006          -0.992       8.621e-02          0.0915
 174       5.055e+00      -1.208e+01       2.310e-01           0.126           0.005          -0.992       9.450e-02         -0.0326
 175       4.895e+00      -1.208e+01       2.133e-01           0.095          -0.003          -0.995       9.698e-02         -0.1621
 176       4.736e+00      -1.208e+01       2.036e-01           0.025          -0.023          -0.999       9.376e-02         -0.2445
 177       4.585e+00      -1.208e+01       2.045e-01          -0.040          -0.043          -0.998       8.558e-02         -0.2470
 178       4.453e+00      -1.208e+01       2.133e-01          -0.097          -0.061          -0.993       7.268e-02         -0.2133
 179       4.346e+00      -1.208e+01       2.269e-01          -0.164          -0.083          -0.983       5.572e-02         -0.1757
 180       4.271e+00      -1.208e+01       2.437e-01          -0.301          -0.128          -0.945       3.615e-02         -0.1238
 181       4.233e+00      -1.208e+01       2.635e-01          -0.712          -0.264          -0.651       1.777e-02          0.4129
 182       4.233e+00      -1.208e+01       2.899e-01          -0.817          -0.274           0.508       2.310e-02          0.5937
 183       4.271e+00      -1.208e+01       3.203e-01          -0.447          -0.138           0.884       3.882e-02         -0.2369
 184       4.346e+00      -1.208e+01       3.488e-01          -0.288          -0.083           0.954       5.754e-02         -0.4135
 185       4.453e+00      -1.208e+01       3.744e-01          -0.188          -0.050           0.981       7.370e-02         -0.5324
 186       4.585e+00      -1.208e+01       3.933e-01          -0.100          -0.021           0.995       8.591e-02         -0.6186
 187       4.736e+00      -1.208e+01       4.008e-01          -0.005           0.007           1.000       9.368e-02         -0.6414
 188       4.895e+00      -1.208e+01       3.936e-01           0.094           0.035           0.995       9.693e-02         -0.5474
 189       5.055e+00      -1.208e+01       3.736e-01           0.155           0.052           0.987       9.490e-02         -0.3786
 190       5.205e+00      -1.208e+01       3.473e-01           0.190           0.060           0.980       8.712e-02         -0.2105
 191       5.338e+00      -1.208e+01       3.208e-01           0.204           0.063           0.977       7.387e-02         -0.0675
 192       5.445e+00      -1.208e+01       2.987e-01           0.201           0.063           0.978       5.603e-02          0.0364
 193       5.519e+00      -1.208e+01       2.836e-01           0.194           0.061           0.979       3.492e-02          0.1344
 194       5.558e+00      -1.208e+01       2.760e-01           0.193           0.061           0.979       1.187e-02          0.1990
Strip 8
 195       5.429e+00      -1.144e+01       2.603e-01          -0.057          -0.034          -0.998       1.415e-02          0.2501
 196       5.388e+00      -1.144e+01       2.621e-01          -0.041          -0.031          -0.999       4.161e-02          0.2782
 197       5.308e+00      -1.144e+01       2.607e-01           0.056          -0.011          -0.998       6.669e-02          0.2767
 198       5.194e+00      -1.144e+01       2.511e-01           0.104           0.000          -0.995       8.822e-02          0.1956
 199       5.052e+00      -1.144e+01       2.343e-01           0.129           0.006          -0.992       1.047e-01          0.0922
 200       4.891e+00      -1.144e+01       2.136e-01           0.126           0.005          -0.992       1.148e-01         -0.0317
 201       4.720e+00      -1.144e+01       1.946e-01           0.095          -0.003          -0.995       1.178e-01         -0.1609
 202       4.549e+00      -1.144e+01       1.842e-01           0.025          -0.023          -0.999       1.139e-01         -0.2430
 203       4.388e+00      -1.144e+01       1.852e-01          -0.040          -0.043          -0.998       1.039e-01         -0.2453
 204       4.247e+00      -1.144e+01       1.946e-01          -0.097          -0.061          -0.993       8.827e-02         -0.2113
 205       4.132e+00      -1.144e+01       2.092e-01          -0.164          -0.082          -0.983       6.767e-02         -0.1732
 206       4.052e+00      -1.144e+01       2.271e-01          -0.301          -0.128          -0.945       4.392e-02         -0.1198
 207       4.011e+00      -1.144e+01       2.483e-01          -0.712          -0.264          -0.651       2.159e-02          0.4171
 208       4.011e+00      -1.144e+01       2.766e-01          -0.817          -0.274           0.507       2.805e-02          0.5907
 209       4.052e+00      -1.144e+01       3.092e-01          -0.447          -0.138           0.884       4.714e-02         -0.2414
 210       4.132e+00      -1.144e+01       3.396e-01          -0.288          -0.083           0.954       6.987e-02         -0.4171
 211       4.247e+00      -1.144e+01       3.670e-01          -0.189          -0.050           0.981       8.950e-02         -0.5358
 212       4.388e+00      -1.144e+01       3.872e-01          -0.100          -0.021           0.995       1.043e-01         -0.6219
 213       4.549e+00      -1.144e+01       3.952e-01          -0.005           0.007           1.000       1.138e-01         -0.6447
 214       4.720e+00      -1.144e+01       3.875e-01           0.094           0.035           0.995       1.177e-01         -0.5504
 215       4.891e+00      -1.144e+01       3.661e-01           0.155           0.052           0.987       1.153e-01         -0.3812
 216       5.052e+00      -1.144e+01       3.380e-01           0.190           0.060           0.980       1.058e-01         -0.2125
 217       5.194e+00      -1.144e+01       3.096e-01           0.204           0.063           0.977       8.972e-02         -0.0692
 218       5.308e+00      -1.144e+01       2.860e-01           0.201           0.063           0.978       6.805e-02          0.0352
 219       5.388e+00      -1.144e+01       2.698e-01           0.194           0.061           0.979       4.242e-02          0.1335
 220       5.429e+00      -1.144e+01       2.617e-01           0.193           0.061           0.979       1.442e-02          0.1984
Strip 9
 221       5.284e+00      -1.073e+01       2.441e-01          -0.057          -0.034          -0.998       1.690e-02          0.2500
 222       5.240e+00      -1.073e+01       2.461e-01          -0.041          -0.031          -0.999       4.967e-02          0.2782
 223       5.154e+00      -1.073e+01       2.445e-01           0.056          -0.011          -0.998       7.961e-02          0.2768
 224       5.031e+00      -1.073e+01       2.343e-01           0.104           0.000          -0.995       1.053e-01          0.1958
 225       4.879e+00      -1.073e+01       2.163e-01           0.129           0.006          -0.992       1.250e-01          0.0925
 226       4.707e+00      -1.073e+01       1.940e-01           0.126           0.005          -0.992       1.370e-01         -0.0313
 227       4.523e+00      -1.073e+01       1.736e-01           0.095          -0.003          -0.995       1.406e-01         -0.1605
 228       4.340e+00      -1.073e+01       1.625e-01           0.025          -0.023          -0.999       1.359e-01         -0.2425
 229       4.167e+00      -1.073e+01       1.635e-01          -0.040          -0.043          -0.998       1.241e-01         -0.2449
 230       4.015e+00      -1.073e+01       1.736e-01          -0.097          -0.061          -0.993       1.054e-01         -0.2110
 231       3.892e+00      -1.073e+01       1.893e-01          -0.164          -0.082          -0.983       8.080e-02         -0.1729
 232       3.807e+00      -1.073e+01       2.086e-01          -0.301          -0.128          -0.945       5.244e-02         -0.1194
 233       3.762e+00      -1.073e+01       2.313e-01          -0.712          -0.264          -0.651       2.578e-02          0.4172
 234       3.762e+00      -1.073e+01       2.617e-01          -0.817          -0.274           0.507       3.348e-02          0.5908
 235       3.807e+00      -1.073e+01       2.966e-01          -0.447          -0.139           0.884       5.626e-02         -0.2418
 236       3.892e+00      -1.073e+01       3.293e-01          -0.288          -0.083           0.954       8.339e-02         -0.4178
 237       4.015e+00      -1.073e+01       3.587e-01          -0.189          -0.050           0.981       1.068e-01         -0.5367
 238       4.167e+00      -1.073e+01       3.803e-01          -0.100          -0.021           0.995       1.245e-01         -0.6230
 239       4.340e+00      -1.073e+01       3.890e-01          -0.005           0.007           1.000       1.358e-01         -0.6457
 240       4.523e+00      -1.073e+01       3.807e-01           0.094           0.035           0.995       1.405e-01         -0.5514
 241       4.707e+00      -1.073e+01       3.577e-01           0.155           0.052           0.987       1.376e-01         -0.3822
 242       4.879e+00      -1.073e+01       3.276e-01           0.190           0.060           0.980       1.263e-01         -0.2134
 243       5.031e+00      -1.073e+01       2.971e-01           0.204           0.063           0.977       1.071e-01         -0.0698
 244       5.154e+00      -1.073e+01       2.717e-01           0.201           0.063           0.978       8.124e-02          0.0347
 245       5.240e+00      -1.073e+01       2.544e-01           0.194           0.061           0.979       5.064e-02          0.1331
 246       5.284e+00      -1.073e+01       2.457e-01           0.193           0.061           0.979       1.721e-02          0.1980
Strip 10
 247       5.124e+00      -9.941e+00       2.263e-01          -0.057          -0.034          -0.998       1.988e-02          0.2500
 248       5.077e+00      -9.941e+00       2.285e-01          -0.041          -0.031          -0.999       5.844e-02          0.2783
 249       4.985e+00      -9.941e+00       2.268e-01           0.056          -0.011          -0.998       9.366e-02          0.2769
 250       4.853e+00      -9.942e+00       2.158e-01           0.104           0.000          -0.995       1.239e-01          0.1959
 251       4.689e+00      -9.942e+00       1.964e-01           0.129           0.006          -0.992       1.470e-01          0.0925
 252       4.503e+00      -9.942e+00       1.724e-01           0.126           0.005          -0.992       1.612e-01         -0.0313
 253       4.306e+00      -9.942e+00       1.505e-01           0.095          -0.003          -0.995       1.654e-01         -0.1607
 254       4.109e+00      -9.942e+00       1.385e-01           0.025          -0.023          -0.999       1.599e-01         -0.2429
 255       3.923e+00      -9.942e+00       1.396e-01          -0.040          -0.043          -0.998       1.460e-01         -0.2454
 256       3.760e+00      -9.942e+00       1.505e-01          -0.097          -0.061          -0.993       1.240e-01         -0.2118
 257       3.628e+00      -9.942e+00       1.673e-01          -0.164          -0.082          -0.983       9.507e-02         -0.1741
 258       3.536e+00      -9.942e+00       1.881e-01          -0.301          -0.128          -0.945       6.170e-02         -0.1216
 259       3.488e+00      -9.942e+00       2.125e-01          -0.711          -0.264          -0.651       3.034e-02          0.4142
 260       3.488e+00      -9.941e+00       2.452e-01          -0.817          -0.274           0.507       3.938e-02          0.5935
 261       3.536e+00      -9.941e+00       2.827e-01          -0.447          -0.139           0.883       6.618e-02         -0.2392
 262       3.628e+00      -9.941e+00       3.179e-01          -0.288          -0.083           0.954       9.810e-02         -0.4163
 263       3.760e+00      -9.940e+00       3.495e-01          -0.189          -0.050           0.981       1.257e-01         -0.5358
 264       3.923e+00      -9.940e+00       3.728e-01          -0.100          -0.021           0.995       1.465e-01         -0.6224
 265       4.109e+00      -9.940e+00       3.821e-01          -0.005           0.007           1.000       1.598e-01         -0.6455
 266       4.306e+00      -9.940e+00       3.732e-01           0.094           0.035           0.995       1.654e-01         -0.5513
 267       4.503e+00      -9.940e+00       3.485e-01           0.155           0.052           0.987       1.619e-01         -0.3822
 268       4.689e+00      -9.941e+00       3.160e-01           0.190           0.060           0.980       1.486e-01         -0.2135
 269       4.853e+00      -9.941e+00       2.833e-01           0.204           0.063           0.977       1.260e-01         -0.0700
 270       4.985e+00      -9.941e+00       2.560e-01           0.200           0.063           0.978       9.559e-02          0.0345
 271       5.077e+00      -9.941e+00       2.374e-01           0.194           0.061           0.979       5.958e-02          0.1330
 272       5.124e+00      -9.941e+00       2.280e-01           0.193           0.061           0.979       2.025e-02          0.1979
Strip 11
 273       4.951e+00      -9.087e+00       2.069e-01          -0.057          -0.034          -0.998       2.309e-02          0.2500
 274       4.900e+00      -9.087e+00       2.093e-01          -0.041          -0.031          -0.999       6.787e-02          0.2782
 275       4.800e+00      -9.087e+00       2.074e-01           0.056          -0.011          -0.998       1.088e-01          0.2769
 276       4.659e+00      -9.087e+00       1.956e-01           0.104           0.000          -0.995       1.439e-01          0.1958
 277       4.483e+00      -9.087e+00       1.747e-01           0.129           0.006          -0.992       1.707e-01          0.0924
 278       4.283e+00      -9.087e+00       1.490e-01           0.126           0.005          -0.992       1.872e-01         -0.0317
 279       4.070e+00      -9.087e+00       1.254e-01           0.095          -0.003          -0.995       1.921e-01         -0.1612
 280       3.858e+00      -9.087e+00       1.125e-01           0.025          -0.023          -0.999       1.857e-01         -0.2437
 281       3.658e+00      -9.087e+00       1.137e-01          -0.040          -0.043          -0.998       1.695e-01         -0.2466
 282       3.482e+00      -9.087e+00       1.254e-01          -0.097          -0.061          -0.993       1.440e-01         -0.2135
 283       3.341e+00      -9.087e+00       1.435e-01          -0.164          -0.082          -0.983       1.104e-01         -0.1767
 284       3.241e+00      -9.087e+00       1.658e-01          -0.301          -0.128          -0.945       7.166e-02         -0.1262
 285       3.190e+00      -9.087e+00       1.921e-01          -0.711          -0.263          -0.652       3.524e-02          0.4086
 286       3.190e+00      -9.086e+00       2.273e-01          -0.818          -0.274           0.506       4.573e-02          0.5979
 287       3.241e+00      -9.086e+00       2.677e-01          -0.448          -0.139           0.883       7.683e-02         -0.2345
 288       3.341e+00      -9.086e+00       3.055e-01          -0.288          -0.083           0.954       1.139e-01         -0.4132
 289       3.482e+00      -9.085e+00       3.395e-01          -0.189          -0.050           0.981       1.459e-01         -0.5336
 290       3.658e+00      -9.085e+00       3.646e-01          -0.100          -0.021           0.995       1.702e-01         -0.6207
 291       3.858e+00      -9.085e+00       3.746e-01          -0.005           0.007           1.000       1.856e-01         -0.6442
 292       4.070e+00      -9.085e+00       3.650e-01           0.094           0.035           0.995       1.920e-01         -0.5504
 293       4.283e+00      -9.085e+00       3.385e-01           0.155           0.052           0.987       1.880e-01         -0.3816
 294       4.483e+00      -9.086e+00       3.035e-01           0.190           0.060           0.980       1.726e-01         -0.2132
 295       4.659e+00      -9.086e+00       2.682e-01           0.203           0.063           0.977       1.464e-01         -0.0699
 296       4.800e+00      -9.086e+00       2.389e-01           0.200           0.063           0.978       1.110e-01          0.0345
 297       4.900e+00      -9.086e+00       2.188e-01           0.194           0.061           0.979       6.920e-02          0.1329
 298       4.951e+00      -9.087e+00       2.088e-01           0.193           0.061           0.979       2.352e-02          0.1978
Strip 12
 299       4.765e+00      -8.170e+00       1.862e-01          -0.057          -0.034          -0.998       2.649e-02          0.2500
 300       4.710e+00      -8.170e+00       1.887e-01          -0.041          -0.031          -0.999       7.787e-02          0.2782
 301       4.603e+00      -8.170e+00       1.867e-01           0.056          -0.011          -0.998       1.248e-01          0.2767
 302       4.450e+00      -8.170e+00       1.740e-01           0.104           0.000          -0.995       1.651e-01          0.1956
 303       4.261e+00      -8.170e+00       1.516e-01           0.129           0.006          -0.992       1.959e-01          0.0920
 304       4.046e+00      -8.170e+00       1.238e-01           0.126           0.005          -0.992       2.147e-01         -0.0323
 305       3.818e+00      -8.170e+00       9.844e-02           0.095          -0.003          -0.995       2.204e-01         -0.1622
 306       3.589e+00      -8.170e+00       8.455e-02           0.025          -0.023          -0.999       2.131e-01         -0.2451
 307       3.374e+00      -8.170e+00       8.584e-02          -0.040          -0.043          -0.998       1.945e-01         -0.2484
 308       3.185e+00      -8.170e+00       9.845e-02          -0.097          -0.061          -0.993       1.652e-01         -0.2159
 309       3.032e+00      -8.170e+00       1.179e-01          -0.164          -0.082          -0.983       1.267e-01         -0.1803
 310       2.925e+00      -8.170e+00       1.419e-01          -0.301          -0.128          -0.945       8.224e-02         -0.1325
 311       2.870e+00      -8.170e+00       1.702e-01          -0.711          -0.263          -0.652       4.044e-02          0.4011
 312       2.870e+00      -8.169e+00       2.080e-01          -0.818          -0.274           0.506       5.246e-02          0.6040
 313       2.925e+00      -8.169e+00       2.515e-01          -0.448          -0.139           0.883       8.814e-02         -0.2276
 314       3.032e+00      -8.169e+00       2.923e-01          -0.288          -0.083           0.954       1.307e-01         -0.4087
 315       3.185e+00      -8.169e+00       3.288e-01          -0.189          -0.050           0.981       1.674e-01         -0.5302
 316       3.374e+00      -8.168e+00       3.558e-01          -0.100          -0.021           0.995       1.952e-01         -0.6181
 317       3.589e+00      -8.168e+00       3.666e-01          -0.005           0.007           1.000       2.129e-01         -0.6422
 318       3.818e+00      -8.168e+00       3.562e-01           0.094           0.035           0.995       2.204e-01         -0.5490
 319       4.046e+00      -8.169e+00       3.277e-01           0.155           0.052           0.987       2.158e-01         -0.3806
 320       4.261e+00      -8.169e+00       2.901e-01           0.190           0.060           0.980       1.981e-01         -0.2126
 321       4.450e+00      -8.169e+00       2.521e-01           0.203           0.063           0.977       1.680e-01         -0.0695
 322       4.603e+00      -8.169e+00       2.206e-01           0.200           0.063           0.978       1.274e-01          0.0346
 323       4.710e+00      -8.169e+00       1.990e-01           0.194           0.061           0.979       7.940e-02          0.1329
 324       4.765e+00      -8.170e+00       1.881e-01           0.193           0.061           0.979       2.698e-02          0.1978
Strip 13
 325       4.568e+00      -7.197e+00       1.642e-01          -0.057          -0.034          -0.998       3.006e-02          0.2500
 326       4.508e+00      -7.197e+00       1.669e-01          -0.041          -0.031          -0.999       8.835e-02          0.2782
 327       4.393e+00      -7.197e+00       1.648e-01           0.056          -0.011          -0.998       1.416e-01          0.2766
 328       4.229e+00      -7.197e+00       1.511e-01           0.104           0.000          -0.995       1.873e-01          0.1953
 329       4.026e+00      -7.197e+00       1.269e-01           0.129           0.006          -0.992       2.222e-01          0.0915
 330       3.795e+00      -7.197e+00       9.716e-02           0.126           0.005          -0.992       2.436e-01         -0.0331
 331       3.549e+00      -7.197e+00       6.986e-02           0.095          -0.003          -0.995       2.500e-01         -0.1634
 332       3.304e+00      -7.197e+00       5.493e-02           0.025          -0.023          -0.999       2.418e-01         -0.2468
 333       3.073e+00      -7.197e+00       5.632e-02          -0.040          -0.043          -0.998       2.207e-01         -0.2507
 334       2.869e+00      -7.197e+00       6.987e-02          -0.097          -0.061          -0.993       1.875e-01         -0.2190
 335       2.705e+00      -7.197e+00       9.078e-02          -0.164          -0.082          -0.983       1.437e-01         -0.1847
 336       2.591e+00      -7.197e+00       1.166e-01          -0.301          -0.128          -0.945       9.332e-02         -0.1404
 337       2.531e+00      -7.197e+00       1.470e-01          -0.711          -0.263          -0.652       4.589e-02          0.3915
 338       2.531e+00      -7.197e+00       1.877e-01          -0.818          -0.274           0.506       5.950e-02          0.6115
 339       2.591e+00      -7.196e+00       2.344e-01          -0.448          -0.139           0.883       9.998e-02         -0.2188
 340       2.705e+00      -7.196e+00       2.782e-01          -0.288          -0.083           0.954       1.482e-01         -0.4029
 341       2.869e+00      -7.196e+00       3.175e-01          -0.189          -0.050           0.981       1.899e-01         -0.5258
 342       3.073e+00      -7.196e+00       3.465e-01          -0.100          -0.021           0.995       2.215e-01         -0.6147
 343       3.304e+00      -7.196e+00       3.581e-01          -0.005           0.007           1.000       2.416e-01         -0.6395
 344       3.549e+00      -7.196e+00       3.470e-01           0.094           0.035           0.995       2.500e-01         -0.5470
 345       3.795e+00      -7.196e+00       3.163e-01           0.155           0.052           0.987       2.448e-01         -0.3793
 346       4.026e+00      -7.196e+00       2.759e-01           0.190           0.060           0.980       2.248e-01         -0.2117
 347       4.229e+00      -7.196e+00       2.351e-01           0.203           0.063           0.977       1.906e-01         -0.0690
 348       4.393e+00      -7.197e+00       2.012e-01           0.200           0.063           0.978       1.445e-01          0.0350
 349       4.508e+00      -7.197e+00       1.779e-01           0.194           0.061           0.979       9.009e-02          0.1331
 350       4.568e+00      -7.197e+00       1.663e-01           0.193           0.061           0.979       3.062e-02          0.1978
Strip 14
 351       4.360e+00      -6.175e+00       1.410e-01          -0.057          -0.034          -0.998       3.373e-02          0.2499
 352       4.297e+00      -6.175e+00       1.439e-01          -0.041          -0.031          -0.999       9.915e-02          0.2780
 353       4.173e+00      -6.175e+00       1.417e-01           0.056          -0.011          -0.998       1.589e-01          0.2764
 354       3.997e+00      -6.175e+00       1.270e-01           0.104           0.000          -0.995       2.102e-01          0.1950
 355       3.779e+00      -6.175e+00       1.011e-01           0.129           0.006          -0.992       2.494e-01          0.0909
 356       3.531e+00      -6.175e+00       6.913e-02           0.126           0.005          -0.992       2.734e-01         -0.0341
 357       3.268e+00      -6.175e+00       3.983e-02           0.095          -0.003          -0.995       2.806e-01         -0.1649
 358       3.004e+00      -6.175e+00       2.381e-02           0.025          -0.023          -0.999       2.713e-01         -0.2490
 359       2.756e+00      -6.175e+00       2.530e-02          -0.040          -0.043          -0.998       2.477e-01         -0.2535
 360       2.538e+00      -6.175e+00       3.984e-02          -0.097          -0.061          -0.993       2.104e-01         -0.2227
 361       2.362e+00      -6.175e+00       6.228e-02          -0.164          -0.082          -0.983       1.613e-01         -0.1903
 362       2.239e+00      -6.175e+00       9.001e-02          -0.301          -0.128          -0.945       1.047e-01         -0.1500
 363       2.175e+00      -6.175e+00       1.226e-01          -0.711          -0.263          -0.652       5.151e-02          0.3799
 364       2.175e+00      -6.175e+00       1.663e-01          -0.818          -0.275           0.505       6.676e-02          0.6202
 365       2.239e+00      -6.174e+00       2.164e-01          -0.448          -0.139           0.883       1.122e-01         -0.2083
 366       2.362e+00      -6.174e+00       2.634e-01          -0.288          -0.083           0.954       1.663e-01         -0.3959
 367       2.538e+00      -6.174e+00       3.056e-01          -0.189          -0.050           0.981       2.131e-01         -0.5205
 368       2.756e+00      -6.174e+00       3.367e-01          -0.100          -0.021           0.995       2.485e-01         -0.6104
 369       3.004e+00      -6.174e+00       3.491e-01          -0.005           0.007           1.000       2.711e-01         -0.6361
 370       3.268e+00      -6.174e+00       3.372e-01           0.094           0.035           0.995       2.806e-01         -0.5445
 371       3.531e+00      -6.174e+00       3.043e-01           0.155           0.052           0.987       2.747e-01         -0.3776
 372       3.779e+00      -6.174e+00       2.609e-01           0.190           0.060           0.980       2.523e-01         -0.2106
 373       3.997e+00      -6.174e+00       2.171e-01           0.203           0.063           0.977       2.139e-01         -0.0683
 374       4.173e+00      -6.175e+00       1.807e-01           0.200           0.063           0.978       1.622e-01          0.0353
 375       4.297e+00      -6.175e+00       1.558e-01           0.194           0.061           0.979       1.011e-01          0.1332
 376       4.360e+00      -6.175e+00       1.433e-01           0.192           0.061           0.979       3.436e-02          0.1978
Strip 15
 377       4.144e+00      -5.111e+00       1.170e-01          -0.057          -0.034          -0.998       3.746e-02          0.2499
 378       4.076e+00      -5.111e+00       1.201e-01          -0.041          -0.031          -0.999       1.101e-01          0.2779
 379       3.944e+00      -5.111e+00       1.176e-01           0.056          -0.011          -0.998       1.764e-01          0.2762
 380       3.756e+00      -5.111e+00       1.019e-01           0.104           0.000          -0.995       2.334e-01          0.1945
 381       3.522e+00      -5.111e+00       7.417e-02           0.129           0.006          -0.992       2.770e-01          0.0901
 382       3.256e+00      -5.111e+00       3.994e-02           0.126           0.005          -0.992       3.036e-01         -0.0353
 383       2.974e+00      -5.111e+00       8.561e-03           0.095          -0.003          -0.995       3.116e-01         -0.1667
 384       2.692e+00      -5.111e+00      -8.597e-03           0.025          -0.023          -0.999       3.013e-01         -0.2515
 385       2.426e+00      -5.111e+00      -7.000e-03          -0.040          -0.043          -0.998       2.751e-01         -0.2568
 386       2.193e+00      -5.111e+00       8.578e-03          -0.097          -0.061          -0.993       2.336e-01         -0.2271
 387       2.004e+00      -5.111e+00       3.261e-02          -0.164          -0.082          -0.983       1.792e-01         -0.1967
 388       1.872e+00      -5.111e+00       6.230e-02          -0.301          -0.128          -0.945       1.163e-01         -0.1614
 389       1.804e+00      -5.111e+00       9.722e-02          -0.711          -0.263          -0.652       5.721e-02          0.3660
 390       1.804e+00      -5.111e+00       1.440e-01          -0.818          -0.275           0.505       7.413e-02          0.6305
 391       1.872e+00      -5.110e+00       1.977e-01          -0.448          -0.139           0.883       1.246e-01         -0.1957
 392       2.004e+00      -5.110e+00       2.480e-01          -0.288          -0.083           0.954       1.847e-01         -0.3874
 393       2.193e+00      -5.110e+00       2.932e-01          -0.189          -0.050           0.981       2.367e-01         -0.5140
 394       2.426e+00      -5.110e+00       3.265e-01          -0.100          -0.021           0.995       2.760e-01         -0.6052
 395       2.692e+00      -5.110e+00       3.398e-01          -0.005           0.007           1.000       3.011e-01         -0.6320
 396       2.974e+00      -5.110e+00       3.270e-01           0.094           0.035           0.995       3.116e-01         -0.5414
 397       3.256e+00      -5.110e+00       2.917e-01           0.155           0.052           0.987       3.051e-01         -0.3755
 398       3.522e+00      -5.110e+00       2.453e-01           0.190           0.060           0.980       2.801e-01         -0.2093
 399       3.756e+00      -5.110e+00       1.984e-01           0.203           0.063           0.977       2.375e-01         -0.0675
 400       3.944e+00      -5.111e+00       1.595e-01           0.200           0.063           0.978       1.801e-01          0.0358
 401       4.076e+00      -5.111e+00       1.328e-01           0.194           0.061           0.979       1.123e-01          0.1334
 402       4.144e+00      -5.111e+00       1.194e-01           0.192           0.061           0.979       3.816e-02          0.1979
Strip 16
 403       3.921e+00      -4.012e+00       9.209e-02          -0.057          -0.034          -0.998       4.118e-02          0.2495
 404       3.849e+00      -4.012e+00       9.539e-02          -0.041          -0.031          -0.999       1.210e-01          0.2776
 405       3.708e+00      -4.012e+00       9.281e-02           0.056          -0.011          -0.998       1.939e-01          0.2757
 406       3.506e+00      -4.012e+00       7.600e-02           0.104           0.000          -0.995       2.566e-01          0.1938
 407       3.256e+00      -4.012e+00       4.637e-02           0.129           0.006          -0.992       3.044e-01          0.0892
 408       2.973e+00      -4.012e+00       9.793e-03           0.126           0.005          -0.992       3.337e-01         -0.0367
 409       2.671e+00      -4.012e+00      -2.373e-02           0.095          -0.003          -0.995       3.425e-01         -0.1689
 410       2.370e+00      -4.012e+00      -4.206e-02           0.025          -0.023          -0.999       3.312e-01         -0.2544
 411       2.086e+00      -4.012e+00      -4.036e-02          -0.040          -0.043          -0.998       3.024e-01         -0.2607
 412       1.836e+00      -4.012e+00      -2.371e-02          -0.097          -0.061          -0.993       2.568e-01         -0.2323
 413       1.635e+00      -4.012e+00       1.960e-03          -0.164          -0.082          -0.983       1.970e-01         -0.2043
 414       1.494e+00      -4.012e+00       3.369e-02          -0.301          -0.128          -0.945       1.279e-01         -0.1748
 415       1.421e+00      -4.012e+00       7.099e-02          -0.711          -0.263          -0.653       6.290e-02          0.3493
 416       1.421e+00      -4.012e+00       1.209e-01          -0.818          -0.275           0.505       8.147e-02          0.6424
 417       1.494e+00      -4.011e+00       1.784e-01          -0.448          -0.139           0.883       1.369e-01         -0.1804
 418       1.635e+00      -4.011e+00       2.321e-01          -0.288          -0.083           0.954       2.030e-01         -0.3770
 419       1.836e+00      -4.011e+00       2.804e-01          -0.189          -0.050           0.981       2.601e-01         -0.5059
 420       2.086e+00      -4.011e+00       3.159e-01          -0.100          -0.021           0.995       3.034e-01         -0.5987
 421       2.370e+00      -4.011e+00       3.302e-01          -0.005           0.007           1.000       3.309e-01         -0.6268
 422       2.671e+00      -4.011e+00       3.165e-01           0.094           0.035           0.995       3.425e-01         -0.5376
 423       2.973e+00      -4.011e+00       2.788e-01           0.155           0.052           0.987       3.354e-01         -0.3730
 424       3.256e+00      -4.011e+00       2.292e-01           0.190           0.060           0.980       3.079e-01         -0.2077
 425       3.506e+00      -4.011e+00       1.791e-01           0.203           0.063           0.977       2.611e-01         -0.0667
 426       3.708e+00      -4.012e+00       1.375e-01           0.200           0.063           0.978       1.980e-01          0.0362
 427       3.849e+00      -4.012e+00       1.090e-01           0.194           0.061           0.979       1.234e-01          0.1334
 428       3.921e+00      -4.012e+00       9.466e-02           0.192           0.061           0.979       4.195e-02          0.1976
Strip 17
 429       3.693e+00      -2.885e+00       6.660e-02          -0.057          -0.034          -0.998       4.481e-02          0.2492
 430       3.615e+00      -2.885e+00       7.012e-02          -0.041          -0.031          -0.999       1.317e-01          0.2771
 431       3.465e+00      -2.885e+00       6.736e-02           0.056          -0.011          -0.998       2.111e-01          0.2750
 432       3.250e+00      -2.885e+00       4.945e-02           0.104           0.000          -0.995       2.792e-01          0.1928
 433       2.984e+00      -2.885e+00       1.788e-02           0.129           0.006          -0.992       3.313e-01          0.0878
 434       2.682e+00      -2.885e+00      -2.110e-02           0.126           0.005          -0.992       3.631e-01         -0.0386
 435       2.361e+00      -2.885e+00      -5.683e-02           0.095          -0.003          -0.995       3.727e-01         -0.1715
 436       2.039e+00      -2.885e+00      -7.636e-02           0.025          -0.023          -0.999       3.604e-01         -0.2578
 437       1.737e+00      -2.885e+00      -7.455e-02          -0.040          -0.043          -0.998       3.290e-01         -0.2650
 438       1.471e+00      -2.885e+00      -5.681e-02          -0.097          -0.061          -0.993       2.795e-01         -0.2379
 439       1.256e+00      -2.885e+00      -2.945e-02          -0.164          -0.082          -0.983       2.143e-01         -0.2128
 440       1.106e+00      -2.885e+00       4.359e-03          -0.301          -0.128          -0.945       1.392e-01         -0.1906
 441       1.028e+00      -2.885e+00       4.411e-02          -0.710          -0.263          -0.653       6.846e-02          0.3289
 442       1.028e+00      -2.885e+00       9.734e-02          -0.818          -0.275           0.505       8.865e-02          0.6566
 443       1.106e+00      -2.885e+00       1.585e-01          -0.448          -0.139           0.883       1.490e-01         -0.1611
 444       1.256e+00      -2.885e+00       2.158e-01          -0.288          -0.083           0.954       2.209e-01         -0.3634
 445       1.471e+00      -2.885e+00       2.672e-01          -0.189          -0.050           0.981       2.831e-01         -0.4953
 446       1.737e+00      -2.885e+00       3.051e-01          -0.100          -0.021           0.995       3.301e-01         -0.5903
 447       2.039e+00      -2.885e+00       3.203e-01          -0.005           0.007           1.000       3.601e-01         -0.6203
 448       2.361e+00      -2.885e+00       3.058e-01           0.094           0.035           0.995       3.727e-01         -0.5332
 449       2.682e+00      -2.885e+00       2.656e-01           0.155           0.052           0.987       3.650e-01         -0.3703
 450       2.984e+00      -2.885e+00       2.128e-01           0.190           0.060           0.980       3.351e-01         -0.2063
 451       3.250e+00      -2.885e+00       1.594e-01           0.203           0.063           0.977       2.841e-01         -0.0660
 452       3.465e+00      -2.885e+00       1.150e-01           0.200           0.063           0.978       2.155e-01          0.0363
 453       3.615e+00      -2.885e+00       8.461e-02           0.193           0.061           0.979       1.343e-01          0.1332
 454       3.693e+00      -2.885e+00       6.933e-02           0.192           0.061           0.979       4.565e-02          0.1973
Strip 18
 455       3.460e+00      -1.739e+00       4.066e-02          -0.057          -0.034          -0.998       4.828e-02          0.2478
 456       3.378e+00      -1.739e+00       4.440e-02          -0.041          -0.031          -0.999       1.419e-01          0.2756
 457       3.218e+00      -1.739e+00       4.147e-02           0.056          -0.011          -0.998       2.274e-01          0.2733
 458       2.990e+00      -1.739e+00       2.244e-02           0.104           0.000          -0.995       3.008e-01          0.1906
 459       2.707e+00      -1.739e+00      -1.112e-02           0.129           0.006          -0.992       3.569e-01          0.0850
 460       2.386e+00      -1.739e+00      -5.254e-02           0.126           0.005          -0.992       3.912e-01         -0.0419
 461       2.045e+00      -1.739e+00      -9.051e-02           0.095          -0.003          -0.995       4.015e-01         -0.1751
 462       1.703e+00      -1.739e+00      -1.113e-01           0.025          -0.023          -0.999       3.883e-01         -0.2615
 463       1.382e+00      -1.739e+00      -1.093e-01          -0.040          -0.043          -0.998       3.545e-01         -0.2687
 464       1.099e+00      -1.739e+00      -9.049e-02          -0.097          -0.061          -0.993       3.011e-01         -0.2426
 465       8.709e-01      -1.739e+00      -6.141e-02          -0.164          -0.082          -0.983       2.309e-01         -0.2205
 466       7.112e-01      -1.739e+00      -2.548e-02          -0.301          -0.128          -0.945       1.500e-01         -0.2070
 467       6.289e-01      -1.739e+00       1.676e-02          -0.710          -0.263          -0.653       7.377e-02          0.3044
 468       6.289e-01      -1.739e+00       7.333e-02          -0.818          -0.275           0.505       9.550e-02          0.6749
 469       7.112e-01      -1.739e+00       1.383e-01          -0.448          -0.139           0.883       1.605e-01         -0.1336
 470       8.709e-01      -1.739e+00       1.992e-01          -0.288          -0.083           0.954       2.380e-01         -0.3426
 471       1.099e+00      -1.739e+00       2.539e-01          -0.189          -0.050           0.981       3.050e-01         -0.4787
 472       1.382e+00      -1.739e+00       2.942e-01          -0.100          -0.021           0.995       3.557e-01         -0.5773
 473       1.703e+00      -1.739e+00       3.103e-01          -0.005           0.007           1.000       3.880e-01         -0.6113
 474       2.045e+00      -1.739e+00       2.948e-01           0.094           0.035           0.995       4.016e-01         -0.5283
 475       2.386e+00      -1.739e+00       2.521e-01           0.155           0.052           0.987       3.933e-01         -0.3686
 476       2.707e+00      -1.739e+00       1.960e-01           0.190           0.060           0.980       3.611e-01         -0.2064
 477       2.990e+00      -1.739e+00       1.392e-01           0.203           0.063           0.977       3.061e-01         -0.0670
 478       3.218e+00      -1.739e+00       9.209e-02           0.200           0.063           0.978       2.322e-01          0.0351
 479       3.378e+00      -1.739e+00       5.980e-02           0.193           0.061           0.979       1.447e-01          0.1318
 480       3.460e+00      -1.739e+00       4.357e-02           0.192           0.061           0.979       4.918e-02          0.1959
Strip 19
 481       3.225e+00      -5.810e-01       1.445e-02          -0.057          -0.034          -0.998       5.151e-02          0.2443
 482       3.138e+00      -5.810e-01       1.841e-02          -0.041          -0.031          -0.999       1.514e-01          0.2715
 483       2.969e+00      -5.810e-01       1.531e-02           0.056          -0.011          -0.998       2.426e-01          0.2675
 484       2.727e+00      -5.810e-01      -4.859e-03           0.104           0.000          -0.995       3.209e-01          0.1814
 485       2.427e+00      -5.810e-01      -4.041e-02           0.129           0.006          -0.992       3.808e-01          0.0723
 486       2.087e+00      -5.810e-01      -8.430e-02           0.126           0.005          -0.992       4.174e-01         -0.0557
 487       1.725e+00      -5.810e-01      -1.245e-01           0.095          -0.003          -0.995       4.283e-01         -0.1852
 488       1.364e+00      -5.811e-01      -1.465e-01           0.025          -0.023          -0.999       4.143e-01         -0.2634
 489       1.023e+00      -5.811e-01      -1.445e-01          -0.040          -0.043          -0.998       3.782e-01         -0.2613
 490       7.233e-01      -5.810e-01      -1.245e-01          -0.097          -0.061          -0.993       3.213e-01         -0.2282
 491       4.817e-01      -5.810e-01      -9.370e-02          -0.164          -0.082          -0.983       2.464e-01         -0.2052
 492       3.124e-01      -5.810e-01      -5.563e-02          -0.301          -0.128          -0.945       1.600e-01         -0.2021
 493       2.253e-01      -5.810e-01      -1.087e-02          -0.710          -0.263          -0.653       7.871e-02          0.2830
 494       2.253e-01      -5.810e-01       4.907e-02          -0.819          -0.275           0.505       1.019e-01          0.7023
 495       3.124e-01      -5.810e-01       1.180e-01          -0.448          -0.139           0.883       1.712e-01         -0.0750
 496       4.817e-01      -5.809e-01       1.825e-01          -0.288          -0.083           0.954       2.539e-01         -0.2875
 497       7.233e-01      -5.809e-01       2.404e-01          -0.189          -0.050           0.981       3.254e-01         -0.4308
 498       1.023e+00      -5.809e-01       2.831e-01          -0.100          -0.021           0.995       3.795e-01         -0.5433
 499       1.364e+00      -5.809e-01       3.002e-01          -0.005           0.007           1.000       4.139e-01         -0.5945
 500       1.725e+00      -5.809e-01       2.838e-01           0.094           0.035           0.995       4.284e-01         -0.5283
 501       2.087e+00      -5.809e-01       2.385e-01           0.155           0.052           0.987       4.196e-01         -0.3793
 502       2.427e+00      -5.809e-01       1.790e-01           0.190           0.060           0.980       3.852e-01         -0.2199
 503       2.727e+00      -5.810e-01       1.189e-01           0.203           0.063           0.977       3.266e-01         -0.0782
 504       2.969e+00      -5.810e-01       6.895e-02           0.200           0.063           0.978       2.477e-01          0.0271
 505       3.138e+00      -5.810e-01       3.473e-02           0.193           0.061           0.979       1.544e-01          0.1262
 506       3.225e+00      -5.810e-01       1.753e-02           0.192           0.061           0.979       5.247e-02          0.1914
Strip 20
 507       3.225e+00       5.810e-01       1.445e-02          -0.057           0.034          -0.998       5.151e-02          0.2443
 508       3.138e+00       5.810e-01       1.841e-02          -0.041           0.031          -0.999       1.514e-01          0.2715
 509       2.969e+00       5.810e-01       1.531e-02           0.056           0.011          -0.998       2.426e-01          0.2675
 510       2.727e+00       5.810e-01      -4.859e-03           0.104          -0.000          -0.995       3.209e-01          0.1814
 511       2.427e+00       5.810e-01      -4.041e-02           0.129          -0.006          -0.992       3.808e-01          0.0723
 512       2.087e+00       5.810e-01      -8.430e-02           0.126          -0.005          -0.992       4.174e-01         -0.0557
 513       1.725e+00       5.810e-01      -1.245e-01           0.095           0.003          -0.995       4.283e-01         -0.1852
 514       1.364e+00       5.811e-01      -1.465e-01           0.025           0.023          -0.999       4.143e-01         -0.2634
 515       1.023e+00       5.811e-01      -1.445e-01          -0.040           0.043          -0.998       3.782e-01         -0.2613
 516       7.233e-01       5.810e-01      -1.245e-01          -0.097           0.061          -0.993       3.213e-01         -0.2282
 517       4.817e-01       5.810e-01      -9.370e-02          -0.164           0.082          -0.983       2.464e-01         -0.2052
 518       3.124e-01       5.810e-01      -5.563e-02          -0.301           0.128          -0.945       1.600e-01         -0.2021
 519       2.253e-01       5.810e-01      -1.087e-02          -0.710           0.263          -0.653       7.871e-02          0.2830
 520       2.253e-01       5.810e-01       4.907e-02          -0.819           0.275           0.505       1.019e-01          0.7023
 521       3.124e-01       5.810e-01       1.180e-01          -0.448           0.139           0.883       1.712e-01         -0.0750
 522       4.817e-01       5.809e-01       1.825e-01          -0.288           0.083           0.954       2.539e-01         -0.2875
 523       7.233e-01       5.809e-01       2.404e-01          -0.189           0.050           0.981       3.254e-01         -0.4308
 524       1.023e+00       5.809e-01       2.831e-01          -0.100           0.021           0.995       3.795e-01         -0.5433
 525       1.364e+00       5.809e-01       3.002e-01          -0.005          -0.007           1.000       4.139e-01         -0.5945
 526       1.725e+00       5.809e-01       2.838e-01           0.094          -0.035           0.995       4.284e-01         -0.5283
 527       2.087e+00       5.809e-01       2.385e-01           0.155          -0.052           0.987       4.196e-01         -0.3793
 528       2.427e+00       5.809e-01       1.790e-01           0.190          -0.060           0.980       3.852e-01         -0.2199
 529       2.727e+00       5.810e-01       1.189e-01           0.203          -0.063           0.977       3.266e-01         -0.0782
 530       2.969e+00       5.810e-01       6.895e-02           0.200          -0.063           0.978       2.477e-01          0.0271
 531       3.138e+00       5.810e-01       3.473e-02           0.193          -0.061           0.979       1.544e-01          0.1262
 532       3.225e+00       5.810e-01       1.753e-02           0.192          -0.061           0.979       5.247e-02          0.1914
Strip 21
 533       3.460e+00       1.739e+00       4.066e-02          -0.057           0.034          -0.998       4.828e-02          0.2478
 534       3.378e+00       1.739e+00       4.440e-02          -0.041           0.031          -0.999       1.419e-01          0.2756
 535       3.218e+00       1.739e+00       4.147e-02           0.056           0.011          -0.998       2.274e-01          0.2733
 536       2.990e+00       1.739e+00       2.244e-02           0.104          -0.000          -0.995       3.008e-01          0.1906
 537       2.707e+00       1.739e+00      -1.112e-02           0.129          -0.006          -0.992       3.569e-01          0.0850
 538       2.386e+00       1.739e+00      -5.254e-02           0.126          -0.005          -0.992       3.912e-01         -0.0419
 539       2.045e+00       1.739e+00      -9.051e-02           0.095           0.003          -0.995       4.015e-01         -0.1751
 540       1.703e+00       1.739e+00      -1.113e-01           0.025           0.023          -0.999       3.883e-01         -0.2615
 541       1.382e+00       1.739e+00      -1.093e-01          -0.040           0.043          -0.998       3.545e-01         -0.2687
 542       1.099e+00       1.739e+00      -9.049e-02          -0.097           0.061          -0.993       3.011e-01         -0.2426
 543       8.709e-01       1.739e+00      -6.141e-02          -0.164           0.082          -0.983       2.309e-01         -0.2205
 544       7.112e-01       1.739e+00      -2.548e-02          -0.301           0.128          -0.945       1.500e-01         -0.2070
 545       6.289e-01       1.739e+00       1.676e-02          -0.710           0.263          -0.653       7.377e-02          0.3044
 546       6.289e-01       1.739e+00       7.333e-02          -0.818           0.275           0.505       9.550e-02          0.6749
 547       7.112e-01       1.739e+00       1.383e-01          -0.448           0.139           0.883       1.605e-01         -0.1336
 548       8.709e-01       1.739e+00       1.992e-01          -0.288           0.083           0.954       2.380e-01         -0.3426
 549       1.099e+00       1.739e+00       2.539e-01          -0.189           0.050           0.981       3.050e-01         -0.4787
 550       1.382e+00       1.739e+00       2.942e-01          -0.100           0.021           0.995       3.557e-01         -0.5773
 551       1.703e+00       1.739e+00       3.103e-01          -0.005          -0.007           1.000       3.880e-01         -0.6113
 552       2.045e+00       1.739e+00       2.948e-01           0.094          -0.035           0.995       4.016e-01         -0.5283
 553       2.386e+00       1.739e+00       2.521e-01           0.155          -0.052           0.987       3.933e-01         -0.3686
 554       2.707e+00       1.739e+00       1.960e-01           0.190          -0.060           0.980       3.611e-01         -0.2064
 555       2.990e+00       1.739e+00       1.392e-01           0.203          -0.063           0.977       3.061e-01         -0.0670
 556       3.218e+00       1.739e+00       9.209e-02           0.200          -0.063           0.978       2.322e-01          0.0351
 557       3.378e+00       1.739e+00       5.980e-02           0.193          -0.061           0.979       1.447e-01          0.1318
 558       3.460e+00       1.739e+00       4.357e-02           0.192          -0.061           0.979       4.918e-02          0.1959
Strip 22
 559       3.693e+00       2.885e+00       6.660e-02          -0.057           0.034          -0.998       4.481e-02          0.2492
 560       3.615e+00       2.885e+00       7.012e-02          -0.041           0.031          -0.999       1.317e-01          0.2771
 561       3.465e+00       2.885e+00       6.736e-02           0.056           0.011          -0.998       2.111e-01          0.2750
 562       3.250e+00       2.885e+00       4.945e-02           0.104          -0.000          -0.995       2.792e-01          0.1928
 563       2.984e+00       2.885e+00       1.788e-02           0.129          -0.006          -0.992       3.313e-01          0.0878
 564       2.682e+00       2.885e+00      -2.110e-02           0.126          -0.005          -0.992       3.631e-01         -0.0386
 565       2.361e+00       2.885e+00      -5.683e-02           0.095           0.003          -0.995       3.727e-01         -0.1715
 566       2.039e+00       2.885e+00      -7.636e-02           0.025           0.023          -0.999       3.604e-01         -0.2578
 567       1.737e+00       2.885e+00      -7.455e-02          -0.040           0.043          -0.998       3.290e-01         -0.2650
 568       1.471e+00       2.885e+00      -5.681e-02          -0.097           0.061          -0.993       2.795e-01         -0.2379
[...]
 852       4.898e+00       1.263e+01       2.204e-01           0.025           0.023          -0.999       7.556e-02         -0.2472
 853       4.756e+00       1.263e+01       2.212e-01          -0.040           0.043          -0.998       6.896e-02         -0.2503
 854       4.632e+00       1.263e+01       2.295e-01          -0.097           0.061          -0.993       5.856e-02         -0.2173
 855       4.532e+00       1.263e+01       2.423e-01          -0.164           0.083          -0.983       4.489e-02         -0.1811
 856       4.462e+00       1.263e+01       2.581e-01          -0.301           0.128          -0.945       2.913e-02         -0.1326
 857       4.425e+00       1.263e+01       2.767e-01          -0.712           0.264          -0.651       1.432e-02          0.4032
 858       4.425e+00       1.263e+01       3.015e-01          -0.817           0.274           0.508       1.862e-02          0.6006
 859       4.462e+00       1.263e+01       3.301e-01          -0.447           0.138           0.884       3.129e-02         -0.2273
 860       4.532e+00       1.263e+01       3.568e-01          -0.288           0.083           0.954       4.637e-02         -0.4060
 861       4.632e+00       1.263e+01       3.809e-01          -0.188           0.050           0.981       5.940e-02         -0.5254
 862       4.756e+00       1.263e+01       3.986e-01          -0.099           0.021           0.995       6.924e-02         -0.6116
 863       4.898e+00       1.263e+01       4.057e-01          -0.005          -0.007           1.000       7.549e-02         -0.6344
 864       5.048e+00       1.263e+01       3.989e-01           0.094          -0.035           0.995       7.810e-02         -0.5410
 865       5.198e+00       1.263e+01       3.801e-01           0.155          -0.052           0.987       7.647e-02         -0.3732
 866       5.339e+00       1.263e+01       3.554e-01           0.190          -0.060           0.980       7.020e-02         -0.2061
 867       5.463e+00       1.263e+01       3.305e-01           0.204          -0.063           0.977       5.952e-02         -0.0641
 868       5.564e+00       1.263e+01       3.098e-01           0.201          -0.063           0.978       4.514e-02          0.0389
 869       5.634e+00       1.263e+01       2.956e-01           0.194          -0.061           0.979       2.814e-02          0.1361
 870       5.670e+00       1.263e+01       2.884e-01           0.193          -0.061           0.979       9.563e-03          0.2003
Strip 34
 871       5.765e+00       1.310e+01       2.977e-01          -0.057           0.034          -0.998       7.348e-03          0.2514
 872       5.731e+00       1.310e+01       2.993e-01          -0.041           0.031          -0.999       2.160e-02          0.2787
 873       5.664e+00       1.310e+01       2.981e-01           0.056           0.011          -0.998       3.462e-02          0.2759
 874       5.569e+00       1.310e+01       2.902e-01           0.104          -0.000          -0.995       4.581e-02          0.1939
 875       5.452e+00       1.310e+01       2.762e-01           0.129          -0.006          -0.992       5.436e-02          0.0894
 876       5.318e+00       1.310e+01       2.590e-01           0.126          -0.005          -0.992       5.959e-02         -0.0359
 877       5.176e+00       1.310e+01       2.432e-01           0.095           0.003          -0.995       6.115e-02         -0.1669
 878       5.035e+00       1.310e+01       2.346e-01           0.025           0.023          -0.999       5.912e-02         -0.2510
 879       4.901e+00       1.310e+01       2.354e-01          -0.040           0.043          -0.998       5.396e-02         -0.2554
 880       4.784e+00       1.310e+01       2.432e-01          -0.097           0.061          -0.993       4.582e-02         -0.2238
 881       4.689e+00       1.310e+01       2.553e-01          -0.164           0.083          -0.983       3.512e-02         -0.1900
 882       4.622e+00       1.310e+01       2.702e-01          -0.301           0.128          -0.945       2.279e-02         -0.1473
 883       4.588e+00       1.310e+01       2.878e-01          -0.712           0.264          -0.650       1.120e-02          0.3863
 884       4.588e+00       1.310e+01       3.113e-01          -0.816           0.274           0.508       1.457e-02          0.6119
 885       4.622e+00       1.310e+01       3.383e-01          -0.447           0.138           0.884       2.449e-02         -0.2114
 886       4.689e+00       1.310e+01       3.636e-01          -0.288           0.083           0.954       3.629e-02         -0.3932
 887       4.784e+00       1.310e+01       3.863e-01          -0.188           0.050           0.981       4.648e-02         -0.5129
 888       4.901e+00       1.310e+01       4.030e-01          -0.099           0.021           0.995       5.418e-02         -0.5985
 889       5.035e+00       1.310e+01       4.097e-01          -0.005          -0.007           1.000       5.907e-02         -0.6209
 890       5.176e+00       1.310e+01       4.033e-01           0.094          -0.035           0.995       6.111e-02         -0.5280
 891       5.318e+00       1.310e+01       3.856e-01           0.155          -0.052           0.987       5.983e-02         -0.3620
 892       5.452e+00       1.310e+01       3.622e-01           0.190          -0.060           0.980       5.493e-02         -0.1971
 893       5.569e+00       1.310e+01       3.387e-01           0.204          -0.063           0.977       4.657e-02         -0.0574
 894       5.664e+00       1.310e+01       3.191e-01           0.201          -0.063           0.978       3.532e-02          0.0438
 895       5.731e+00       1.310e+01       3.057e-01           0.194          -0.061           0.979       2.202e-02          0.1392
 896       5.765e+00       1.310e+01       2.989e-01           0.193          -0.061           0.979       7.482e-03          0.2025
Strip 35
 897       5.841e+00       1.347e+01       3.063e-01          -0.057           0.034          -0.998       5.499e-03          0.2514
 898       5.809e+00       1.347e+01       3.077e-01          -0.041           0.031          -0.999       1.616e-02          0.2780
 899       5.745e+00       1.347e+01       3.066e-01           0.056           0.011          -0.998       2.591e-02          0.2746
 900       5.655e+00       1.348e+01       2.990e-01           0.104          -0.000          -0.995       3.428e-02          0.1925
 901       5.543e+00       1.348e+01       2.858e-01           0.129          -0.006          -0.992       4.068e-02          0.0882
 902       5.416e+00       1.348e+01       2.694e-01           0.126          -0.005          -0.992       4.459e-02         -0.0368
 903       5.281e+00       1.348e+01       2.543e-01           0.095           0.003          -0.995       4.576e-02         -0.1682
 904       5.145e+00       1.348e+01       2.461e-01           0.025           0.023          -0.999       4.424e-02         -0.2539
 905       5.018e+00       1.348e+01       2.469e-01          -0.040           0.043          -0.998       4.037e-02         -0.2608
 906       4.906e+00       1.348e+01       2.543e-01          -0.097           0.061          -0.993       3.428e-02         -0.2322
 907       4.816e+00       1.348e+01       2.658e-01          -0.164           0.083          -0.983       2.628e-02         -0.2027
 908       4.752e+00       1.348e+01       2.801e-01          -0.301           0.128          -0.945       1.705e-02         -0.1691
 909       4.720e+00       1.348e+01       2.968e-01          -0.713           0.264          -0.650       8.377e-03          0.3608
 910       4.720e+00       1.347e+01       3.192e-01          -0.816           0.274           0.509       1.091e-02          0.6257
 911       4.752e+00       1.347e+01       3.449e-01          -0.447           0.138           0.884       1.833e-02         -0.1900
 912       4.816e+00       1.347e+01       3.691e-01          -0.288           0.083           0.954       2.716e-02         -0.3744
 913       4.906e+00       1.347e+01       3.907e-01          -0.188           0.050           0.981       3.478e-02         -0.4924
 914       5.018e+00       1.347e+01       4.066e-01          -0.099           0.021           0.995       4.054e-02         -0.5747
 915       5.145e+00       1.347e+01       4.130e-01          -0.005          -0.007           1.000       4.420e-02         -0.5941
 916       5.281e+00       1.347e+01       4.069e-01           0.094          -0.035           0.995       4.573e-02         -0.5014
 917       5.416e+00       1.347e+01       3.900e-01           0.155          -0.052           0.987       4.476e-02         -0.3388
 918       5.543e+00       1.347e+01       3.678e-01           0.190          -0.060           0.980       4.110e-02         -0.1792
 919       5.655e+00       1.347e+01       3.453e-01           0.204          -0.063           0.977       3.484e-02         -0.0450
 920       5.745e+00       1.347e+01       3.266e-01           0.201          -0.063           0.978       2.643e-02          0.0515
 921       5.809e+00       1.347e+01       3.138e-01           0.194          -0.061           0.979       1.647e-02          0.1433
 922       5.841e+00       1.347e+01       3.074e-01           0.193          -0.061           0.979       5.599e-03          0.2047
Strip 36
 923       5.899e+00       1.376e+01       3.127e-01          -0.057           0.034          -0.998       3.808e-03          0.2443
 924       5.868e+00       1.376e+01       3.141e-01          -0.041           0.031          -0.999       1.119e-02          0.2700
 925       5.807e+00       1.376e+01       3.130e-01           0.056           0.011          -0.998       1.794e-02          0.2659
 926       5.720e+00       1.376e+01       3.058e-01           0.104          -0.000          -0.995       2.374e-02          0.1852
 927       5.612e+00       1.376e+01       2.930e-01           0.129          -0.006          -0.992       2.817e-02          0.0848
 928       5.489e+00       1.376e+01       2.772e-01           0.126          -0.005          -0.992       3.088e-02         -0.0347
 929       5.359e+00       1.376e+01       2.627e-01           0.095           0.003          -0.995       3.169e-02         -0.1617
 930       5.229e+00       1.376e+01       2.548e-01           0.025           0.023          -0.999       3.064e-02         -0.2472
 931       5.106e+00       1.376e+01       2.555e-01          -0.040           0.043          -0.998       2.796e-02         -0.2595
 932       4.998e+00       1.376e+01       2.627e-01          -0.097           0.061          -0.993       2.374e-02         -0.2392
 933       4.911e+00       1.376e+01       2.738e-01          -0.164           0.083          -0.983       1.820e-02         -0.2189
 934       4.851e+00       1.376e+01       2.875e-01          -0.301           0.128          -0.945       1.181e-02         -0.1992
 935       4.819e+00       1.376e+01       3.036e-01          -0.713           0.264          -0.650       5.801e-03          0.3259
 936       4.819e+00       1.376e+01       3.252e-01          -0.816           0.274           0.509       7.556e-03          0.6337
 937       4.851e+00       1.376e+01       3.500e-01          -0.447           0.138           0.884       1.270e-02         -0.1707
 938       4.911e+00       1.376e+01       3.732e-01          -0.288           0.083           0.954       1.881e-02         -0.3519
 939       4.998e+00       1.376e+01       3.940e-01          -0.188           0.050           0.981       2.409e-02         -0.4598
 940       5.106e+00       1.376e+01       4.094e-01          -0.099           0.021           0.995       2.808e-02         -0.5290
 941       5.229e+00       1.376e+01       4.155e-01          -0.005          -0.007           1.000       3.061e-02         -0.5392
 942       5.359e+00       1.376e+01       4.096e-01           0.094          -0.035           0.995       3.167e-02         -0.4477
 943       5.489e+00       1.376e+01       3.934e-01           0.155          -0.052           0.987       3.100e-02         -0.2955
 944       5.612e+00       1.376e+01       3.719e-01           0.190          -0.060           0.980       2.846e-02         -0.1498
 945       5.720e+00       1.376e+01       3.503e-01           0.204          -0.063           0.977       2.413e-02         -0.0288
 946       5.807e+00       1.376e+01       3.323e-01           0.201          -0.063           0.978       1.830e-02          0.0575
 947       5.868e+00       1.376e+01       3.200e-01           0.194          -0.061           0.979       1.141e-02          0.1421
 948       5.899e+00       1.376e+01       3.138e-01           0.193          -0.061           0.979       3.877e-03          0.1997
Strip 37
 949       5.938e+00       1.395e+01       3.170e-01          -0.057           0.034          -0.998       2.236e-03          0.2088
 950       5.907e+00       1.395e+01       3.184e-01          -0.041           0.031          -0.999       6.573e-03          0.2324
 951       5.848e+00       1.395e+01       3.173e-01           0.056           0.011          -0.998       1.054e-02          0.2286
 952       5.763e+00       1.395e+01       3.103e-01           0.104          -0.000          -0.995       1.394e-02          0.1549
 953       5.658e+00       1.395e+01       2.978e-01           0.129          -0.006          -0.992       1.654e-02          0.0687
 954       5.539e+00       1.395e+01       2.824e-01           0.126          -0.005          -0.992       1.814e-02         -0.0325
 955       5.412e+00       1.395e+01       2.683e-01           0.095           0.003          -0.995       1.861e-02         -0.1411
 956       5.285e+00       1.395e+01       2.606e-01           0.025           0.023          -0.999       1.799e-02         -0.2159
 957       5.166e+00       1.395e+01       2.613e-01          -0.040           0.043          -0.998       1.642e-02         -0.2317
 958       5.060e+00       1.395e+01       2.683e-01          -0.097           0.061          -0.993       1.394e-02         -0.2285
 959       4.976e+00       1.395e+01       2.791e-01          -0.164           0.083          -0.983       1.069e-02         -0.2340
 960       4.916e+00       1.395e+01       2.925e-01          -0.301           0.128          -0.945       6.932e-03         -0.2455
 961       4.886e+00       1.395e+01       3.082e-01          -0.713           0.264          -0.650       3.406e-03          0.2722
 962       4.886e+00       1.395e+01       3.292e-01          -0.816           0.274           0.509       4.437e-03          0.6007
 963       4.916e+00       1.395e+01       3.533e-01          -0.447           0.138           0.884       7.456e-03         -0.1819
 964       4.976e+00       1.395e+01       3.759e-01          -0.288           0.083           0.954       1.105e-02         -0.3311
 965       5.060e+00       1.395e+01       3.963e-01          -0.188           0.050           0.981       1.415e-02         -0.4004
 966       5.166e+00       1.395e+01       4.112e-01          -0.099           0.021           0.995       1.649e-02         -0.4394
 967       5.285e+00       1.395e+01       4.172e-01          -0.005          -0.007           1.000       1.797e-02         -0.4387
 968       5.412e+00       1.395e+01       4.115e-01           0.094          -0.035           0.995       1.859e-02         -0.3593
 969       5.539e+00       1.395e+01       3.956e-01           0.155          -0.052           0.987       1.820e-02         -0.2349
 970       5.658e+00       1.395e+01       3.747e-01           0.190          -0.060           0.980       1.671e-02         -0.1216
 971       5.763e+00       1.395e+01       3.537e-01           0.204          -0.063           0.977       1.417e-02         -0.0302
 972       5.848e+00       1.395e+01       3.362e-01           0.201          -0.063           0.978       1.075e-02          0.0346
 973       5.907e+00       1.395e+01       3.242e-01           0.194          -0.061           0.979       6.699e-03          0.1058
 974       5.938e+00       1.395e+01       3.181e-01           0.193          -0.061           0.979       2.277e-03          0.1577
Strip 38
 975       5.957e+00       1.405e+01       3.192e-01          -0.057           0.034          -0.998       7.371e-04          0.1466
 976       5.927e+00       1.405e+01       3.206e-01          -0.041           0.031          -0.999       2.167e-03          0.1546
 977       5.869e+00       1.405e+01       3.195e-01           0.056           0.011          -0.998       3.474e-03          0.1392
 978       5.785e+00       1.405e+01       3.125e-01           0.104          -0.000          -0.995       4.596e-03          0.0809
 979       5.681e+00       1.405e+01       3.002e-01           0.129          -0.006          -0.992       5.454e-03          0.0253
 980       5.564e+00       1.405e+01       2.851e-01           0.126          -0.005          -0.992       5.979e-03         -0.0412
 981       5.438e+00       1.405e+01       2.711e-01           0.095           0.003          -0.995       6.135e-03         -0.1146
 982       5.313e+00       1.405e+01       2.635e-01           0.025           0.023          -0.999       5.931e-03         -0.1661
 983       5.195e+00       1.405e+01       2.642e-01          -0.040           0.043          -0.998       5.412e-03         -0.1767
 984       5.092e+00       1.405e+01       2.711e-01          -0.097           0.061          -0.993       4.596e-03         -0.1782
 985       5.008e+00       1.405e+01       2.818e-01          -0.164           0.083          -0.983       3.523e-03         -0.1999
 986       4.949e+00       1.405e+01       2.950e-01          -0.301           0.128          -0.945       2.285e-03         -0.2542
 987       4.919e+00       1.405e+01       3.105e-01          -0.713           0.264          -0.650       1.123e-03          0.2576
 988       4.919e+00       1.405e+01       3.312e-01          -0.816           0.274           0.509       1.463e-03          0.5421
 989       4.949e+00       1.405e+01       3.550e-01          -0.447           0.138           0.884       2.458e-03         -0.1989
 990       5.008e+00       1.405e+01       3.773e-01          -0.288           0.083           0.954       3.642e-03         -0.2770
 991       5.092e+00       1.405e+01       3.974e-01          -0.188           0.050           0.981       4.664e-03         -0.3062
 992       5.195e+00       1.405e+01       4.121e-01          -0.099           0.021           0.995       5.435e-03         -0.3268
 993       5.313e+00       1.405e+01       4.181e-01          -0.005          -0.007           1.000       5.925e-03         -0.3222
 994       5.438e+00       1.405e+01       4.124e-01           0.094          -0.035           0.995       6.130e-03         -0.2601
 995       5.564e+00       1.405e+01       3.967e-01           0.155          -0.052           0.987       6.001e-03         -0.1663
 996       5.681e+00       1.405e+01       3.761e-01           0.190          -0.060           0.980       5.509e-03         -0.0840
 997       5.785e+00       1.405e+01       3.553e-01           0.204          -0.063           0.977       4.671e-03         -0.0243
 998       5.869e+00       1.405e+01       3.381e-01           0.201          -0.063           0.978       3.543e-03          0.0084
 999       5.927e+00       1.405e+01       3.262e-01           0.194          -0.061           0.979       2.208e-03          0.0513
1000       5.957e+00       1.405e+01       3.203e-01           0.193          -0.061           0.979       7.505e-04          0.0885










