xflr5 v6.60

Plane Name
T1-10.0 m/s-Panel-Inviscid
QInf  =   10.000000 m/s
Alpha =   10.000000
Beta  =    0.000°
Phi   =    0.000°
Ctrl  =    0.000
CL    =    1.214283
Cy    =   -0.000000
Cd    =    0.034000     ICd   =    0.034000     PCd   =    0.000000
Cl   = -5.97071e-15
Cm   =    -1.54054
ICn   =    0.000000     PCn   =    0.000000 
XCP   =    2.853009     YCP   =    0.000000     ZCP   =    0.243626  
XNP   =    0.000000
Bending = 11864.941728

Main Wing
  y-span        Chord      Ai         Cl        PCd          ICd        CmGeom    CmAirf@chord/4    XTrtop    XTrBot      XCP       BM
  -14.0510     1.0536    -6.371    0.396093    0.000000    0.044226   -2.198195    0.001675     0.0000    0.0000    0.2403    0.0000
  -13.9550     1.0677    -5.394    0.657828    0.000000    0.062103   -3.316201   -0.024577     0.0000    0.0000    0.2802    0.1209
  -13.7637     1.0960    -4.369    0.884140    0.000000    0.067545   -4.196971   -0.031163     0.0000    0.0000    0.2787    1.5754
  -13.4783     1.1382    -3.440    1.050436    0.000000    0.063134   -4.760371   -0.047066     0.0000    0.0000    0.2882    7.8880
  -13.1009     1.1939    -2.672    1.161255    0.000000    0.054185   -4.936096   -0.059426     0.0000    0.0000    0.2945   25.6387
  -12.6341     1.2629    -2.101    1.229439    0.000000    0.045074   -4.816099   -0.067036     0.0000    0.0000    0.2977   64.7811
  -12.0809     1.3447    -1.714    1.268151    0.000000    0.037916   -4.510419   -0.071329     0.0000    0.0000    0.2994   138.7056
  -11.4451     1.4386    -1.473    1.287366    0.000000    0.033075   -4.104549   -0.073659     0.0000    0.0000    0.3003   264.1785
  -10.7312     1.5441    -1.339    1.293688    0.000000    0.030198   -3.656012   -0.074882     0.0000    0.0000    0.3010   461.1829
   -9.9440     1.6605    -1.279    1.291206    0.000000    0.028801   -3.200854   -0.075473     0.0000    0.0000    0.3016   752.6291
   -9.0889     1.7868    -1.274    1.282339    0.000000    0.028468   -2.760660   -0.075677     0.0000    0.0000    0.3022   1163.8888
   -8.1717     1.9224    -1.307    1.268434    0.000000    0.028884   -2.347336   -0.075642     0.0000    0.0000    0.3028   1722.1128
   -7.1986     2.0662    -1.369    1.250120    0.000000    0.029817   -1.966935   -0.075437     0.0000    0.0000    0.3036   2455.3112
   -6.1764     2.2173    -1.453    1.227494    0.000000    0.031074   -1.621733   -0.075105     0.0000    0.0000    0.3044   3391.1870
   -5.1120     2.3745    -1.553    1.200209    0.000000    0.032469   -1.311837   -0.074685     0.0000    0.0000    0.3056   4555.7307
   -4.0127     2.5370    -1.661    1.167451    0.000000    0.033759   -1.036266   -0.074278     0.0000    0.0000    0.3070   5971.6020
   -2.8859     2.7035    -1.760    1.127825    0.000000    0.034502   -0.793764   -0.074189     0.0000    0.0000    0.3093   7656.3271
   -1.7395     2.8729    -1.802    1.079181    0.000000    0.033716   -0.583910   -0.075565     0.0000    0.0000    0.3138   9620.3453
   -0.5812     3.0441    -1.643    1.017634    0.000000    0.028452   -0.410055   -0.083537     0.0000    0.0000    0.3266   11864.9417
    0.5812     3.0441    -1.643    1.017634    0.000000    0.028452   -0.410055   -0.083537     0.0000    0.0000    0.3266   11864.9417
    1.7395     2.8729    -1.802    1.079181    0.000000    0.033716   -0.583910   -0.075565     0.0000    0.0000    0.3138   9620.3453
    2.8859     2.7035    -1.760    1.127825    0.000000    0.034502   -0.793764   -0.074189     0.0000    0.0000    0.3093   7656.3271
    4.0127     2.5370    -1.661    1.167451    0.000000    0.033759   -1.036266   -0.074278     0.0000    0.0000    0.3070   5971.6020
    5.1120     2.3745    -1.553    1.200209    0.000000    0.032469   -1.311837   -0.074685     0.0000    0.0000    0.3056   4555.7307
    6.1764     2.2173    -1.453    1.227494    0.000000    0.031074   -1.621733   -0.075105     0.0000    0.0000    0.3044   3391.1870
    7.1986     2.0662    -1.369    1.250120    0.000000    0.029817   -1.966935   -0.075437     0.0000    0.0000    0.3036   2455.3112
    8.1717     1.9224    -1.307    1.268434    0.000000    0.028884   -2.347336   -0.075642     0.0000    0.0000    0.3028   1722.1128
    9.0889     1.7868    -1.274    1.282339    0.000000    0.028468   -2.760660   -0.075677     0.0000    0.0000    0.3022   1163.8888
    9.9440     1.6605    -1.279    1.291206    0.000000    0.028801   -3.200854   -0.075473     0.0000    0.0000    0.3016   752.6291
   10.7312     1.5441    -1.339    1.293688    0.000000    0.030198   -3.656012   -0.074882     0.0000    0.0000    0.3010   461.1829
   11.4451     1.4386    -1.473    1.287366    0.000000    0.033075   -4.104549   -0.073659     0.0000    0.0000    0.3003   264.1785
   12.0809     1.3447    -1.714    1.268151    0.000000    0.037916   -4.510419   -0.071329     0.0000    0.0000    0.2994   138.7056
   12.6341     1.2629    -2.101    1.229439    0.000000    0.045074   -4.816099   -0.067036     0.0000    0.0000    0.2977   64.7811
   13.1009     1.1939    -2.672    1.161255    0.000000    0.054185   -4.936096   -0.059426     0.0000    0.0000    0.2945   25.6387
   13.4783     1.1382    -3.440    1.050436    0.000000    0.063134   -4.760371   -0.047066     0.0000    0.0000    0.2882    7.8880
   13.7637     1.0960    -4.369    0.884140    0.000000    0.067545   -4.196971   -0.031163     0.0000    0.0000    0.2787    1.5754
   13.9550     1.0677    -5.394    0.657828    0.000000    0.062103   -3.316201   -0.024577     0.0000    0.0000    0.2802    0.1209
   14.0510     1.0536    -6.371    0.396093    0.000000    0.044226   -2.198195    0.001675     0.0000    0.0000    0.2403    0.0000


Main Wing Cp Coefficients
 Panel     CtrlPt.x        CtrlPt.y        CtrlPt.z       Nx      Ny       Nz        Area       Cp
Main WingCp Coefficients
Strip 1
  13       5.957e+00      -1.405e+01       3.192e-01          -0.057          -0.034          -0.998       7.371e-04         -0.4896
  14       5.927e+00      -1.405e+01       3.206e-01          -0.041          -0.031          -0.999       2.167e-03         -0.5060
  15       5.869e+00      -1.405e+01       3.195e-01           0.056          -0.011          -0.998       3.474e-03         -0.5031
  16       5.785e+00      -1.405e+01       3.125e-01           0.104           0.000          -0.995       4.596e-03         -0.4429
  17       5.681e+00      -1.405e+01       3.002e-01           0.129           0.006          -0.992       5.454e-03         -0.3474
  18       5.564e+00      -1.405e+01       2.851e-01           0.126           0.005          -0.992       5.979e-03         -0.2695
  19       5.438e+00      -1.405e+01       2.711e-01           0.095          -0.003          -0.995       6.135e-03         -0.2165
  20       5.313e+00      -1.405e+01       2.635e-01           0.025          -0.023          -0.999       5.931e-03         -0.1606
  21       5.195e+00      -1.405e+01       2.642e-01          -0.040          -0.043          -0.998       5.412e-03         -0.0857
  22       5.092e+00      -1.405e+01       2.711e-01          -0.097          -0.061          -0.993       4.596e-03          0.0097
  23       5.008e+00      -1.405e+01       2.818e-01          -0.164          -0.083          -0.983       3.523e-03          0.1603
  24       4.949e+00      -1.405e+01       2.950e-01          -0.301          -0.128          -0.945       2.285e-03          0.4581
  25       4.919e+00      -1.405e+01       3.105e-01          -0.713          -0.264          -0.650       1.123e-03          0.6355
  26       4.919e+00      -1.405e+01       3.312e-01          -0.816          -0.274           0.509       1.463e-03         -1.4145
  27       4.949e+00      -1.405e+01       3.550e-01          -0.447          -0.138           0.884       2.458e-03         -1.5448
  28       5.008e+00      -1.405e+01       3.773e-01          -0.288          -0.083           0.954       3.642e-03         -0.9792
  29       5.092e+00      -1.405e+01       3.974e-01          -0.188          -0.050           0.981       4.664e-03         -0.7792
  30       5.195e+00      -1.405e+01       4.121e-01          -0.099          -0.021           0.995       5.435e-03         -0.6876
  31       5.313e+00      -1.405e+01       4.181e-01          -0.005           0.007           1.000       5.925e-03         -0.6062
  32       5.438e+00      -1.405e+01       4.124e-01           0.094           0.035           0.995       6.130e-03         -0.4909
  33       5.564e+00      -1.405e+01       3.967e-01           0.155           0.052           0.987       6.001e-03         -0.4064
  34       5.681e+00      -1.405e+01       3.761e-01           0.190           0.060           0.980       5.509e-03         -0.4071
  35       5.785e+00      -1.405e+01       3.553e-01           0.204           0.063           0.977       4.671e-03         -0.4906
  36       5.869e+00      -1.405e+01       3.381e-01           0.201           0.063           0.978       3.543e-03         -0.6145
  37       5.927e+00      -1.405e+01       3.262e-01           0.194           0.061           0.979       2.208e-03         -0.6576
  38       5.957e+00      -1.405e+01       3.203e-01           0.193           0.061           0.979       7.505e-04         -0.6458
Strip 2
  39       5.938e+00      -1.395e+01       3.170e-01          -0.057          -0.034          -0.998       2.236e-03         -0.1111
  40       5.907e+00      -1.395e+01       3.184e-01          -0.041          -0.031          -0.999       6.573e-03         -0.0853
  41       5.848e+00      -1.395e+01       3.173e-01           0.056          -0.011          -0.998       1.054e-02         -0.0716
  42       5.763e+00      -1.395e+01       3.103e-01           0.104           0.000          -0.995       1.394e-02         -0.0796
  43       5.658e+00      -1.395e+01       2.978e-01           0.129           0.006          -0.992       1.654e-02         -0.0866
  44       5.539e+00      -1.395e+01       2.824e-01           0.126           0.005          -0.992       1.814e-02         -0.1033
  45       5.412e+00      -1.395e+01       2.683e-01           0.095          -0.003          -0.995       1.861e-02         -0.1219
  46       5.285e+00      -1.395e+01       2.606e-01           0.025          -0.023          -0.999       1.799e-02         -0.1001
  47       5.166e+00      -1.395e+01       2.613e-01          -0.040          -0.043          -0.998       1.642e-02         -0.0197
  48       5.060e+00      -1.395e+01       2.683e-01          -0.097          -0.061          -0.993       1.394e-02          0.1111
  49       4.976e+00      -1.395e+01       2.791e-01          -0.164          -0.083          -0.983       1.069e-02          0.3195
  50       4.916e+00      -1.395e+01       2.925e-01          -0.301          -0.128          -0.945       6.932e-03          0.6516
  51       4.886e+00      -1.395e+01       3.082e-01          -0.713          -0.264          -0.650       3.406e-03          0.5184
  52       4.886e+00      -1.395e+01       3.292e-01          -0.816          -0.274           0.509       4.437e-03         -2.1281
  53       4.916e+00      -1.395e+01       3.533e-01          -0.447          -0.138           0.884       7.456e-03         -2.0350
  54       4.976e+00      -1.395e+01       3.759e-01          -0.288          -0.083           0.954       1.105e-02         -1.2858
  55       5.060e+00      -1.395e+01       3.963e-01          -0.188          -0.050           0.981       1.415e-02         -0.9993
  56       5.166e+00      -1.395e+01       4.112e-01          -0.099          -0.021           0.995       1.649e-02         -0.8597
  57       5.285e+00      -1.395e+01       4.172e-01          -0.005           0.007           1.000       1.797e-02         -0.7471
  58       5.412e+00      -1.395e+01       4.115e-01           0.094           0.035           0.995       1.859e-02         -0.5885
  59       5.539e+00      -1.395e+01       3.956e-01           0.155           0.052           0.987       1.820e-02         -0.4372
  60       5.658e+00      -1.395e+01       3.747e-01           0.190           0.060           0.980       1.671e-02         -0.3450
  61       5.763e+00      -1.395e+01       3.537e-01           0.204           0.063           0.977       1.417e-02         -0.3036
  62       5.848e+00      -1.395e+01       3.362e-01           0.201           0.063           0.978       1.075e-02         -0.2879
  63       5.907e+00      -1.395e+01       3.242e-01           0.194           0.061           0.979       6.699e-03         -0.2366
  64       5.938e+00      -1.395e+01       3.181e-01           0.193           0.061           0.979       2.277e-03         -0.1863
Strip 3
  65       5.899e+00      -1.376e+01       3.127e-01          -0.057          -0.034          -0.998       3.808e-03          0.1867
  66       5.868e+00      -1.376e+01       3.141e-01          -0.041          -0.031          -0.999       1.119e-02          0.2204
  67       5.807e+00      -1.376e+01       3.130e-01           0.056          -0.011          -0.998       1.794e-02          0.2156
  68       5.720e+00      -1.376e+01       3.058e-01           0.104           0.000          -0.995       2.374e-02          0.1568
  69       5.612e+00      -1.376e+01       2.930e-01           0.129           0.006          -0.992       2.817e-02          0.0921
  70       5.489e+00      -1.376e+01       2.772e-01           0.126           0.005          -0.992       3.088e-02          0.0295
  71       5.359e+00      -1.376e+01       2.627e-01           0.095          -0.003          -0.995       3.169e-02         -0.0160
  72       5.229e+00      -1.376e+01       2.548e-01           0.025          -0.023          -0.999       3.064e-02          0.0036
  73       5.106e+00      -1.376e+01       2.555e-01          -0.040          -0.043          -0.998       2.796e-02          0.1064
  74       4.998e+00      -1.376e+01       2.627e-01          -0.097          -0.061          -0.993       2.374e-02          0.2729
  75       4.911e+00      -1.376e+01       2.738e-01          -0.164          -0.083          -0.983       1.820e-02          0.5059
  76       4.851e+00      -1.376e+01       2.875e-01          -0.301          -0.128          -0.945       1.181e-02          0.8038
  77       4.819e+00      -1.376e+01       3.036e-01          -0.713          -0.264          -0.650       5.801e-03          0.3575
  78       4.819e+00      -1.376e+01       3.252e-01          -0.816          -0.274           0.509       7.556e-03         -2.8162
  79       4.851e+00      -1.376e+01       3.500e-01          -0.447          -0.138           0.884       1.270e-02         -2.4740
  80       4.911e+00      -1.376e+01       3.732e-01          -0.288          -0.083           0.954       1.881e-02         -1.5815
  81       4.998e+00      -1.376e+01       3.940e-01          -0.188          -0.050           0.981       2.409e-02         -1.2436
  82       5.106e+00      -1.376e+01       4.094e-01          -0.099          -0.021           0.995       2.808e-02         -1.0626
  83       5.229e+00      -1.376e+01       4.155e-01          -0.005           0.007           1.000       3.061e-02         -0.9025
  84       5.359e+00      -1.376e+01       4.096e-01           0.094           0.035           0.995       3.167e-02         -0.6780
  85       5.489e+00      -1.376e+01       3.934e-01           0.155           0.052           0.987       3.100e-02         -0.4391
  86       5.612e+00      -1.376e+01       3.719e-01           0.190           0.060           0.980       2.846e-02         -0.2439
  87       5.720e+00      -1.376e+01       3.503e-01           0.204           0.063           0.977       2.413e-02         -0.0979
  88       5.807e+00      -1.376e+01       3.323e-01           0.201           0.063           0.978       1.830e-02          0.0008
  89       5.868e+00      -1.376e+01       3.200e-01           0.194           0.061           0.979       1.141e-02          0.0961
  90       5.899e+00      -1.376e+01       3.138e-01           0.193           0.061           0.979       3.877e-03          0.1619
Strip 4
  91       5.841e+00      -1.347e+01       3.063e-01          -0.057          -0.034          -0.998       5.499e-03          0.2480
  92       5.809e+00      -1.347e+01       3.077e-01          -0.041          -0.031          -0.999       1.616e-02          0.2871
  93       5.745e+00      -1.347e+01       3.066e-01           0.056          -0.011          -0.998       2.591e-02          0.2879
  94       5.655e+00      -1.348e+01       2.990e-01           0.104           0.000          -0.995       3.428e-02          0.2308
  95       5.543e+00      -1.348e+01       2.858e-01           0.129           0.006          -0.992       4.068e-02          0.1657
  96       5.416e+00      -1.348e+01       2.694e-01           0.126           0.005          -0.992       4.459e-02          0.1028
  97       5.281e+00      -1.348e+01       2.543e-01           0.095          -0.003          -0.995       4.576e-02          0.0605
  98       5.145e+00      -1.348e+01       2.461e-01           0.025          -0.023          -0.999       4.424e-02          0.0879
  99       5.018e+00      -1.348e+01       2.469e-01          -0.040          -0.043          -0.998       4.037e-02          0.1996
 100       4.906e+00      -1.348e+01       2.543e-01          -0.097          -0.061          -0.993       3.428e-02          0.3703
 101       4.816e+00      -1.348e+01       2.658e-01          -0.164          -0.083          -0.983       2.628e-02          0.5985
 102       4.752e+00      -1.348e+01       2.801e-01          -0.301          -0.128          -0.945       1.705e-02          0.8545
 103       4.720e+00      -1.348e+01       2.968e-01          -0.713          -0.264          -0.650       8.377e-03          0.1508
 104       4.720e+00      -1.347e+01       3.192e-01          -0.816          -0.274           0.509       1.091e-02         -3.4019
 105       4.752e+00      -1.347e+01       3.449e-01          -0.447          -0.138           0.884       1.833e-02         -2.8230
 106       4.816e+00      -1.347e+01       3.691e-01          -0.288          -0.083           0.954       2.716e-02         -1.7973
 107       4.906e+00      -1.347e+01       3.907e-01          -0.188          -0.050           0.981       3.478e-02         -1.4212
 108       5.018e+00      -1.347e+01       4.066e-01          -0.099          -0.021           0.995       4.054e-02         -1.2208
 109       5.145e+00      -1.347e+01       4.130e-01          -0.005           0.007           1.000       4.420e-02         -1.0385
 110       5.281e+00      -1.347e+01       4.069e-01           0.094           0.035           0.995       4.573e-02         -0.7803
 111       5.416e+00      -1.347e+01       3.900e-01           0.155           0.052           0.987       4.476e-02         -0.5013
 112       5.543e+00      -1.347e+01       3.678e-01           0.190           0.060           0.980       4.110e-02         -0.2675
 113       5.655e+00      -1.347e+01       3.453e-01           0.204           0.063           0.977       3.484e-02         -0.0886
 114       5.745e+00      -1.347e+01       3.266e-01           0.201           0.063           0.978       2.643e-02          0.0345
 115       5.809e+00      -1.347e+01       3.138e-01           0.194           0.061           0.979       1.647e-02          0.1465
 116       5.841e+00      -1.347e+01       3.074e-01           0.193           0.061           0.979       5.599e-03          0.2203
Strip 5
 117       5.765e+00      -1.310e+01       2.977e-01          -0.057          -0.034          -0.998       7.348e-03          0.2676
 118       5.731e+00      -1.310e+01       2.993e-01          -0.041          -0.031          -0.999       2.160e-02          0.3105
 119       5.664e+00      -1.310e+01       2.981e-01           0.056          -0.011          -0.998       3.462e-02          0.3163
 120       5.569e+00      -1.310e+01       2.902e-01           0.104           0.000          -0.995       4.581e-02          0.2638
 121       5.452e+00      -1.310e+01       2.762e-01           0.129           0.006          -0.992       5.436e-02          0.2037
 122       5.318e+00      -1.310e+01       2.590e-01           0.126           0.005          -0.992       5.959e-02          0.1464
 123       5.176e+00      -1.310e+01       2.432e-01           0.095          -0.003          -0.995       6.115e-02          0.1104
 124       5.035e+00      -1.310e+01       2.346e-01           0.025          -0.023          -0.999       5.912e-02          0.1429
 125       4.901e+00      -1.310e+01       2.354e-01          -0.040          -0.043          -0.998       5.396e-02          0.2566
 126       4.784e+00      -1.310e+01       2.432e-01          -0.097          -0.061          -0.993       4.582e-02          0.4261
 127       4.689e+00      -1.310e+01       2.553e-01          -0.164          -0.083          -0.983       3.512e-02          0.6492
 128       4.622e+00      -1.310e+01       2.702e-01          -0.301          -0.128          -0.945       2.279e-02          0.8721
 129       4.588e+00      -1.310e+01       2.878e-01          -0.712          -0.264          -0.650       1.120e-02         -0.0269
 130       4.588e+00      -1.310e+01       3.113e-01          -0.816          -0.274           0.508       1.457e-02         -3.8453
 131       4.622e+00      -1.310e+01       3.383e-01          -0.447          -0.138           0.884       2.449e-02         -3.0787
 132       4.689e+00      -1.310e+01       3.636e-01          -0.288          -0.083           0.954       3.629e-02         -1.9474
 133       4.784e+00      -1.310e+01       3.863e-01          -0.188          -0.050           0.981       4.648e-02         -1.5400
 134       4.901e+00      -1.310e+01       4.030e-01          -0.099          -0.021           0.995       5.418e-02         -1.3255
 135       5.035e+00      -1.310e+01       4.097e-01          -0.005           0.007           1.000       5.907e-02         -1.1309
 136       5.176e+00      -1.310e+01       4.033e-01           0.094           0.035           0.995       6.111e-02         -0.8553
 137       5.318e+00      -1.310e+01       3.856e-01           0.155           0.052           0.987       5.983e-02         -0.5556
 138       5.452e+00      -1.310e+01       3.622e-01           0.190           0.060           0.980       5.493e-02         -0.3020
 139       5.569e+00      -1.310e+01       3.387e-01           0.204           0.063           0.977       4.657e-02         -0.1060
 140       5.664e+00      -1.310e+01       3.191e-01           0.201           0.063           0.978       3.532e-02          0.0302
 141       5.731e+00      -1.310e+01       3.057e-01           0.194           0.061           0.979       2.202e-02          0.1523
 142       5.765e+00      -1.310e+01       2.989e-01           0.193           0.061           0.979       7.482e-03          0.2314
Strip 6
 143       5.670e+00      -1.263e+01       2.872e-01          -0.057          -0.034          -0.998       9.392e-03          0.2758
 144       5.634e+00      -1.263e+01       2.888e-01          -0.041          -0.031          -0.999       2.761e-02          0.3210
 145       5.564e+00      -1.263e+01       2.875e-01           0.056          -0.011          -0.998       4.425e-02          0.3301
 146       5.463e+00      -1.263e+01       2.791e-01           0.104           0.000          -0.995       5.854e-02          0.2812
 147       5.339e+00      -1.263e+01       2.644e-01           0.129           0.006          -0.992       6.947e-02          0.2251
 148       5.198e+00      -1.263e+01       2.462e-01           0.126           0.005          -0.992       7.616e-02          0.1720
 149       5.048e+00      -1.263e+01       2.295e-01           0.095          -0.003          -0.995       7.815e-02          0.1402
 150       4.898e+00      -1.263e+01       2.204e-01           0.025          -0.023          -0.999       7.556e-02          0.1756
 151       4.756e+00      -1.263e+01       2.212e-01          -0.040          -0.043          -0.998       6.896e-02          0.2899
 152       4.632e+00      -1.263e+01       2.295e-01          -0.097          -0.061          -0.993       5.856e-02          0.4584
 153       4.532e+00      -1.263e+01       2.423e-01          -0.164          -0.083          -0.983       4.489e-02          0.6781
 154       4.462e+00      -1.263e+01       2.581e-01          -0.301          -0.128          -0.945       2.913e-02          0.8775
 155       4.425e+00      -1.263e+01       2.767e-01          -0.712          -0.264          -0.651       1.432e-02         -0.1543
 156       4.425e+00      -1.263e+01       3.015e-01          -0.817          -0.274           0.508       1.862e-02         -4.1456
 157       4.462e+00      -1.263e+01       3.301e-01          -0.447          -0.138           0.884       3.129e-02         -3.2488
 158       4.532e+00      -1.263e+01       3.568e-01          -0.288          -0.083           0.954       4.637e-02         -2.0440
 159       4.632e+00      -1.263e+01       3.809e-01          -0.188          -0.050           0.981       5.940e-02         -1.6143
 160       4.756e+00      -1.263e+01       3.986e-01          -0.099          -0.021           0.995       6.924e-02         -1.3896
 161       4.898e+00      -1.263e+01       4.057e-01          -0.005           0.007           1.000       7.549e-02         -1.1869
 162       5.048e+00      -1.263e+01       3.989e-01           0.094           0.035           0.995       7.810e-02         -0.9010
 163       5.198e+00      -1.263e+01       3.801e-01           0.155           0.052           0.987       7.647e-02         -0.5899
 164       5.339e+00      -1.263e+01       3.554e-01           0.190           0.060           0.980       7.020e-02         -0.3256
 165       5.463e+00      -1.263e+01       3.305e-01           0.204           0.063           0.977       5.952e-02         -0.1205
 166       5.564e+00      -1.263e+01       3.098e-01           0.201           0.063           0.978       4.514e-02          0.0227
 167       5.634e+00      -1.263e+01       2.956e-01           0.194           0.061           0.979       2.814e-02          0.1507
 168       5.670e+00      -1.263e+01       2.884e-01           0.193           0.061           0.979       9.563e-03          0.2330
Strip 7
 169       5.558e+00      -1.208e+01       2.746e-01          -0.057          -0.034          -0.998       1.165e-02          0.2798
 170       5.519e+00      -1.208e+01       2.764e-01          -0.041          -0.031          -0.999       3.426e-02          0.3264
 171       5.445e+00      -1.208e+01       2.750e-01           0.056          -0.011          -0.998       5.491e-02          0.3375
 172       5.338e+00      -1.208e+01       2.661e-01           0.104           0.000          -0.995       7.265e-02          0.2906
 173       5.205e+00      -1.208e+01       2.504e-01           0.129           0.006          -0.992       8.621e-02          0.2369
 174       5.055e+00      -1.208e+01       2.310e-01           0.126           0.005          -0.992       9.450e-02          0.1864
 175       4.895e+00      -1.208e+01       2.133e-01           0.095          -0.003          -0.995       9.698e-02          0.1570
 176       4.736e+00      -1.208e+01       2.036e-01           0.025          -0.023          -0.999       9.376e-02          0.1939
 177       4.585e+00      -1.208e+01       2.045e-01          -0.040          -0.043          -0.998       8.558e-02          0.3086
 178       4.453e+00      -1.208e+01       2.133e-01          -0.097          -0.061          -0.993       7.268e-02          0.4764
 179       4.346e+00      -1.208e+01       2.269e-01          -0.164          -0.083          -0.983       5.572e-02          0.6938
 180       4.271e+00      -1.208e+01       2.437e-01          -0.301          -0.128          -0.945       3.615e-02          0.8788
 181       4.233e+00      -1.208e+01       2.635e-01          -0.712          -0.264          -0.651       1.777e-02         -0.2315
 182       4.233e+00      -1.208e+01       2.899e-01          -0.817          -0.274           0.508       2.310e-02         -4.3237
 183       4.271e+00      -1.208e+01       3.203e-01          -0.447          -0.138           0.884       3.882e-02         -3.3489
 184       4.346e+00      -1.208e+01       3.488e-01          -0.288          -0.083           0.954       5.754e-02         -2.1002
 185       4.453e+00      -1.208e+01       3.744e-01          -0.188          -0.050           0.981       7.370e-02         -1.6569
 186       4.585e+00      -1.208e+01       3.933e-01          -0.100          -0.021           0.995       8.591e-02         -1.4259
 187       4.736e+00      -1.208e+01       4.008e-01          -0.005           0.007           1.000       9.368e-02         -1.2183
 188       4.895e+00      -1.208e+01       3.936e-01           0.094           0.035           0.995       9.693e-02         -0.9266
 189       5.055e+00      -1.208e+01       3.736e-01           0.155           0.052           0.987       9.490e-02         -0.6093
 190       5.205e+00      -1.208e+01       3.473e-01           0.190           0.060           0.980       8.712e-02         -0.3392
 191       5.338e+00      -1.208e+01       3.208e-01           0.204           0.063           0.977       7.387e-02         -0.1293
 192       5.445e+00      -1.208e+01       2.987e-01           0.201           0.063           0.978       5.603e-02          0.0177
 193       5.519e+00      -1.208e+01       2.836e-01           0.194           0.061           0.979       3.492e-02          0.1489
 194       5.558e+00      -1.208e+01       2.760e-01           0.193           0.061           0.979       1.187e-02          0.2328
Strip 8
 195       5.429e+00      -1.144e+01       2.603e-01          -0.057          -0.034          -0.998       1.415e-02          0.2819
 196       5.388e+00      -1.144e+01       2.621e-01          -0.041          -0.031          -0.999       4.161e-02          0.3293
 197       5.308e+00      -1.144e+01       2.607e-01           0.056          -0.011          -0.998       6.669e-02          0.3415
 198       5.194e+00      -1.144e+01       2.511e-01           0.104           0.000          -0.995       8.822e-02          0.2957
 199       5.052e+00      -1.144e+01       2.343e-01           0.129           0.006          -0.992       1.047e-01          0.2432
 200       4.891e+00      -1.144e+01       2.136e-01           0.126           0.005          -0.992       1.148e-01          0.1939
 201       4.720e+00      -1.144e+01       1.946e-01           0.095          -0.003          -0.995       1.178e-01          0.1656
 202       4.549e+00      -1.144e+01       1.842e-01           0.025          -0.023          -0.999       1.139e-01          0.2033
 203       4.388e+00      -1.144e+01       1.852e-01          -0.040          -0.043          -0.998       1.039e-01          0.3179
 204       4.247e+00      -1.144e+01       1.946e-01          -0.097          -0.061          -0.993       8.827e-02          0.4851
 205       4.132e+00      -1.144e+01       2.092e-01          -0.164          -0.082          -0.983       6.767e-02          0.7014
 206       4.052e+00      -1.144e+01       2.271e-01          -0.301          -0.128          -0.945       4.392e-02          0.8794
 207       4.011e+00      -1.144e+01       2.483e-01          -0.712          -0.264          -0.651       2.159e-02         -0.2669
 208       4.011e+00      -1.144e+01       2.766e-01          -0.817          -0.274           0.507       2.805e-02         -4.4070
 209       4.052e+00      -1.144e+01       3.092e-01          -0.447          -0.138           0.884       4.714e-02         -3.3964
 210       4.132e+00      -1.144e+01       3.396e-01          -0.288          -0.083           0.954       6.987e-02         -2.1270
 211       4.247e+00      -1.144e+01       3.670e-01          -0.189          -0.050           0.981       8.950e-02         -1.6776
 212       4.388e+00      -1.144e+01       3.872e-01          -0.100          -0.021           0.995       1.043e-01         -1.4438
 213       4.549e+00      -1.144e+01       3.952e-01          -0.005           0.007           1.000       1.138e-01         -1.2339
 214       4.720e+00      -1.144e+01       3.875e-01           0.094           0.035           0.995       1.177e-01         -0.9394
 215       4.891e+00      -1.144e+01       3.661e-01           0.155           0.052           0.987       1.153e-01         -0.6190
 216       5.052e+00      -1.144e+01       3.380e-01           0.190           0.060           0.980       1.058e-01         -0.3461
 217       5.194e+00      -1.144e+01       3.096e-01           0.204           0.063           0.977       8.972e-02         -0.1339
 218       5.308e+00      -1.144e+01       2.860e-01           0.201           0.063           0.978       6.805e-02          0.0150
 219       5.388e+00      -1.144e+01       2.698e-01           0.194           0.061           0.979       4.242e-02          0.1478
 220       5.429e+00      -1.144e+01       2.617e-01           0.193           0.061           0.979       1.442e-02          0.2326
Strip 9
 221       5.284e+00      -1.073e+01       2.441e-01          -0.057          -0.034          -0.998       1.690e-02          0.2831
 222       5.240e+00      -1.073e+01       2.461e-01          -0.041          -0.031          -0.999       4.967e-02          0.3308
 223       5.154e+00      -1.073e+01       2.445e-01           0.056          -0.011          -0.998       7.961e-02          0.3436
 224       5.031e+00      -1.073e+01       2.343e-01           0.104           0.000          -0.995       1.053e-01          0.2983
 225       4.879e+00      -1.073e+01       2.163e-01           0.129           0.006          -0.992       1.250e-01          0.2462
 226       4.707e+00      -1.073e+01       1.940e-01           0.126           0.005          -0.992       1.370e-01          0.1973
 227       4.523e+00      -1.073e+01       1.736e-01           0.095          -0.003          -0.995       1.406e-01          0.1693
 228       4.340e+00      -1.073e+01       1.625e-01           0.025          -0.023          -0.999       1.359e-01          0.2070
 229       4.167e+00      -1.073e+01       1.635e-01          -0.040          -0.043          -0.998       1.241e-01          0.3212
 230       4.015e+00      -1.073e+01       1.736e-01          -0.097          -0.061          -0.993       1.054e-01          0.4879
 231       3.892e+00      -1.073e+01       1.893e-01          -0.164          -0.082          -0.983       8.080e-02          0.7035
 232       3.807e+00      -1.073e+01       2.086e-01          -0.301          -0.128          -0.945       5.244e-02          0.8801
 233       3.762e+00      -1.073e+01       2.313e-01          -0.712          -0.264          -0.651       2.578e-02         -0.2703
 234       3.762e+00      -1.073e+01       2.617e-01          -0.817          -0.274           0.507       3.348e-02         -4.4197
 235       3.807e+00      -1.073e+01       2.966e-01          -0.447          -0.139           0.884       5.626e-02         -3.4053
 236       3.892e+00      -1.073e+01       3.293e-01          -0.288          -0.083           0.954       8.339e-02         -2.1330
 237       4.015e+00      -1.073e+01       3.587e-01          -0.189          -0.050           0.981       1.068e-01         -1.6832
 238       4.167e+00      -1.073e+01       3.803e-01          -0.100          -0.021           0.995       1.245e-01         -1.4493
 239       4.340e+00      -1.073e+01       3.890e-01          -0.005           0.007           1.000       1.358e-01         -1.2392
 240       4.523e+00      -1.073e+01       3.807e-01           0.094           0.035           0.995       1.405e-01         -0.9441
 241       4.707e+00      -1.073e+01       3.577e-01           0.155           0.052           0.987       1.376e-01         -0.6228
 242       4.879e+00      -1.073e+01       3.276e-01           0.190           0.060           0.980       1.263e-01         -0.3489
 243       5.031e+00      -1.073e+01       2.971e-01           0.204           0.063           0.977       1.071e-01         -0.1358
 244       5.154e+00      -1.073e+01       2.717e-01           0.201           0.063           0.978       8.124e-02          0.0138
 245       5.240e+00      -1.073e+01       2.544e-01           0.194           0.061           0.979       5.064e-02          0.1472
 246       5.284e+00      -1.073e+01       2.457e-01           0.193           0.061           0.979       1.721e-02          0.2325
Strip 10
 247       5.124e+00      -9.941e+00       2.263e-01          -0.057          -0.034          -0.998       1.988e-02          0.2837
 248       5.077e+00      -9.941e+00       2.285e-01          -0.041          -0.031          -0.999       5.844e-02          0.3316
 249       4.985e+00      -9.941e+00       2.268e-01           0.056          -0.011          -0.998       9.366e-02          0.3445
 250       4.853e+00      -9.942e+00       2.158e-01           0.104           0.000          -0.995       1.239e-01          0.2993
 251       4.689e+00      -9.942e+00       1.964e-01           0.129           0.006          -0.992       1.470e-01          0.2472
 252       4.503e+00      -9.942e+00       1.724e-01           0.126           0.005          -0.992       1.612e-01          0.1982
 253       4.306e+00      -9.942e+00       1.505e-01           0.095          -0.003          -0.995       1.654e-01          0.1698
 254       4.109e+00      -9.942e+00       1.385e-01           0.025          -0.023          -0.999       1.599e-01          0.2069
 255       3.923e+00      -9.942e+00       1.396e-01          -0.040          -0.043          -0.998       1.460e-01          0.3205
 256       3.760e+00      -9.942e+00       1.505e-01          -0.097          -0.061          -0.993       1.240e-01          0.4866
 257       3.628e+00      -9.942e+00       1.673e-01          -0.164          -0.082          -0.983       9.507e-02          0.7019
 258       3.536e+00      -9.942e+00       1.881e-01          -0.301          -0.128          -0.945       6.170e-02          0.8812
 259       3.488e+00      -9.942e+00       2.125e-01          -0.711          -0.264          -0.651       3.034e-02         -0.2500
 260       3.488e+00      -9.941e+00       2.452e-01          -0.817          -0.274           0.507       3.938e-02         -4.3802
 261       3.536e+00      -9.941e+00       2.827e-01          -0.447          -0.139           0.883       6.618e-02         -3.3856
 262       3.628e+00      -9.941e+00       3.179e-01          -0.288          -0.083           0.954       9.810e-02         -2.1238
 263       3.760e+00      -9.940e+00       3.495e-01          -0.189          -0.050           0.981       1.257e-01         -1.6780
 264       3.923e+00      -9.940e+00       3.728e-01          -0.100          -0.021           0.995       1.465e-01         -1.4464
 265       4.109e+00      -9.940e+00       3.821e-01          -0.005           0.007           1.000       1.598e-01         -1.2377
 266       4.306e+00      -9.940e+00       3.732e-01           0.094           0.035           0.995       1.654e-01         -0.9436
 267       4.503e+00      -9.940e+00       3.485e-01           0.155           0.052           0.987       1.619e-01         -0.6228
 268       4.689e+00      -9.941e+00       3.160e-01           0.190           0.060           0.980       1.486e-01         -0.3492
 269       4.853e+00      -9.941e+00       2.833e-01           0.204           0.063           0.977       1.260e-01         -0.1361
 270       4.985e+00      -9.941e+00       2.560e-01           0.200           0.063           0.978       9.559e-02          0.0136
 271       5.077e+00      -9.941e+00       2.374e-01           0.194           0.061           0.979       5.958e-02          0.1472
 272       5.124e+00      -9.941e+00       2.280e-01           0.193           0.061           0.979       2.025e-02          0.2325
Strip 11
 273       4.951e+00      -9.087e+00       2.069e-01          -0.057          -0.034          -0.998       2.309e-02          0.2840
 274       4.900e+00      -9.087e+00       2.093e-01          -0.041          -0.031          -0.999       6.787e-02          0.3319
 275       4.800e+00      -9.087e+00       2.074e-01           0.056          -0.011          -0.998       1.088e-01          0.3448
 276       4.659e+00      -9.087e+00       1.956e-01           0.104           0.000          -0.995       1.439e-01          0.2993
 277       4.483e+00      -9.087e+00       1.747e-01           0.129           0.006          -0.992       1.707e-01          0.2469
 278       4.283e+00      -9.087e+00       1.490e-01           0.126           0.005          -0.992       1.872e-01          0.1973
 279       4.070e+00      -9.087e+00       1.254e-01           0.095          -0.003          -0.995       1.921e-01          0.1681
 280       3.858e+00      -9.087e+00       1.125e-01           0.025          -0.023          -0.999       1.857e-01          0.2042
 281       3.658e+00      -9.087e+00       1.137e-01          -0.040          -0.043          -0.998       1.695e-01          0.3170
 282       3.482e+00      -9.087e+00       1.254e-01          -0.097          -0.061          -0.993       1.440e-01          0.4823
 283       3.341e+00      -9.087e+00       1.435e-01          -0.164          -0.082          -0.983       1.104e-01          0.6974
 284       3.241e+00      -9.087e+00       1.658e-01          -0.301          -0.128          -0.945       7.166e-02          0.8825
 285       3.190e+00      -9.087e+00       1.921e-01          -0.711          -0.263          -0.652       3.524e-02         -0.2117
 286       3.190e+00      -9.086e+00       2.273e-01          -0.818          -0.274           0.506       4.573e-02         -4.3010
 287       3.241e+00      -9.086e+00       2.677e-01          -0.448          -0.139           0.883       7.683e-02         -3.3445
 288       3.341e+00      -9.086e+00       3.055e-01          -0.288          -0.083           0.954       1.139e-01         -2.1031
 289       3.482e+00      -9.085e+00       3.395e-01          -0.189          -0.050           0.981       1.459e-01         -1.6649
 290       3.658e+00      -9.085e+00       3.646e-01          -0.100          -0.021           0.995       1.702e-01         -1.4372
 291       3.858e+00      -9.085e+00       3.746e-01          -0.005           0.007           1.000       1.856e-01         -1.2313
 292       4.070e+00      -9.085e+00       3.650e-01           0.094           0.035           0.995       1.920e-01         -0.9393
 293       4.283e+00      -9.085e+00       3.385e-01           0.155           0.052           0.987       1.880e-01         -0.6202
 294       4.483e+00      -9.086e+00       3.035e-01           0.190           0.060           0.980       1.726e-01         -0.3476
 295       4.659e+00      -9.086e+00       2.682e-01           0.203           0.063           0.977       1.464e-01         -0.1352
 296       4.800e+00      -9.086e+00       2.389e-01           0.200           0.063           0.978       1.110e-01          0.0140
 297       4.900e+00      -9.086e+00       2.188e-01           0.194           0.061           0.979       6.920e-02          0.1473
 298       4.951e+00      -9.087e+00       2.088e-01           0.193           0.061           0.979       2.352e-02          0.2325
Strip 12
 299       4.765e+00      -8.170e+00       1.862e-01          -0.057          -0.034          -0.998       2.649e-02          0.2841
 300       4.710e+00      -8.170e+00       1.887e-01          -0.041          -0.031          -0.999       7.787e-02          0.3319
 301       4.603e+00      -8.170e+00       1.867e-01           0.056          -0.011          -0.998       1.248e-01          0.3445
 302       4.450e+00      -8.170e+00       1.740e-01           0.104           0.000          -0.995       1.651e-01          0.2987
 303       4.261e+00      -8.170e+00       1.516e-01           0.129           0.006          -0.992       1.959e-01          0.2457
 304       4.046e+00      -8.170e+00       1.238e-01           0.126           0.005          -0.992       2.147e-01          0.1952
 305       3.818e+00      -8.170e+00       9.844e-02           0.095          -0.003          -0.995       2.204e-01          0.1647
 306       3.589e+00      -8.170e+00       8.455e-02           0.025          -0.023          -0.999       2.131e-01          0.1995
 307       3.374e+00      -8.170e+00       8.584e-02          -0.040          -0.043          -0.998       1.945e-01          0.3112
 308       3.185e+00      -8.170e+00       9.845e-02          -0.097          -0.061          -0.993       1.652e-01          0.4756
 309       3.032e+00      -8.170e+00       1.179e-01          -0.164          -0.082          -0.983       1.267e-01          0.6906
 310       2.925e+00      -8.170e+00       1.419e-01          -0.301          -0.128          -0.945       8.224e-02          0.8836
 311       2.870e+00      -8.170e+00       1.702e-01          -0.711          -0.263          -0.652       4.044e-02         -0.1596
 312       2.870e+00      -8.169e+00       2.080e-01          -0.818          -0.274           0.506       5.246e-02         -4.1891
 313       2.925e+00      -8.169e+00       2.515e-01          -0.448          -0.139           0.883       8.814e-02         -3.2851
 314       3.032e+00      -8.169e+00       2.923e-01          -0.288          -0.083           0.954       1.307e-01         -2.0730
 315       3.185e+00      -8.169e+00       3.288e-01          -0.189          -0.050           0.981       1.674e-01         -1.6452
 316       3.374e+00      -8.168e+00       3.558e-01          -0.100          -0.021           0.995       1.952e-01         -1.4231
 317       3.589e+00      -8.168e+00       3.666e-01          -0.005           0.007           1.000       2.129e-01         -1.2210
 318       3.818e+00      -8.168e+00       3.562e-01           0.094           0.035           0.995       2.204e-01         -0.9322
 319       4.046e+00      -8.169e+00       3.277e-01           0.155           0.052           0.987       2.158e-01         -0.6156
 320       4.261e+00      -8.169e+00       2.901e-01           0.190           0.060           0.980       1.981e-01         -0.3448
 321       4.450e+00      -8.169e+00       2.521e-01           0.203           0.063           0.977       1.680e-01         -0.1335
 322       4.603e+00      -8.169e+00       2.206e-01           0.200           0.063           0.978       1.274e-01          0.0150
 323       4.710e+00      -8.169e+00       1.990e-01           0.194           0.061           0.979       7.940e-02          0.1477
 324       4.765e+00      -8.170e+00       1.881e-01           0.193           0.061           0.979       2.698e-02          0.2326
Strip 13
 325       4.568e+00      -7.197e+00       1.642e-01          -0.057          -0.034          -0.998       3.006e-02          0.2841
 326       4.508e+00      -7.197e+00       1.669e-01          -0.041          -0.031          -0.999       8.835e-02          0.3318
 327       4.393e+00      -7.197e+00       1.648e-01           0.056          -0.011          -0.998       1.416e-01          0.3440
 328       4.229e+00      -7.197e+00       1.511e-01           0.104           0.000          -0.995       1.873e-01          0.2976
 329       4.026e+00      -7.197e+00       1.269e-01           0.129           0.006          -0.992       2.222e-01          0.2437
 330       3.795e+00      -7.197e+00       9.716e-02           0.126           0.005          -0.992       2.436e-01          0.1920
 331       3.549e+00      -7.197e+00       6.986e-02           0.095          -0.003          -0.995       2.500e-01          0.1600
 332       3.304e+00      -7.197e+00       5.493e-02           0.025          -0.023          -0.999       2.418e-01          0.1931
 333       3.073e+00      -7.197e+00       5.632e-02          -0.040          -0.043          -0.998       2.207e-01          0.3034
 334       2.869e+00      -7.197e+00       6.987e-02          -0.097          -0.061          -0.993       1.875e-01          0.4666
 335       2.705e+00      -7.197e+00       9.078e-02          -0.164          -0.082          -0.983       1.437e-01          0.6816
 336       2.591e+00      -7.197e+00       1.166e-01          -0.301          -0.128          -0.945       9.332e-02          0.8843
 337       2.531e+00      -7.197e+00       1.470e-01          -0.711          -0.263          -0.652       4.589e-02         -0.0957
 338       2.531e+00      -7.197e+00       1.877e-01          -0.818          -0.274           0.506       5.950e-02         -4.0488
 339       2.591e+00      -7.196e+00       2.344e-01          -0.448          -0.139           0.883       9.998e-02         -3.2100
 340       2.705e+00      -7.196e+00       2.782e-01          -0.288          -0.083           0.954       1.482e-01         -2.0345
 341       2.869e+00      -7.196e+00       3.175e-01          -0.189          -0.050           0.981       1.899e-01         -1.6198
 342       3.073e+00      -7.196e+00       3.465e-01          -0.100          -0.021           0.995       2.215e-01         -1.4047
 343       3.304e+00      -7.196e+00       3.581e-01          -0.005           0.007           1.000       2.416e-01         -1.2074
 344       3.549e+00      -7.196e+00       3.470e-01           0.094           0.035           0.995       2.500e-01         -0.9227
 345       3.795e+00      -7.196e+00       3.163e-01           0.155           0.052           0.987       2.448e-01         -0.6094
 346       4.026e+00      -7.196e+00       2.759e-01           0.190           0.060           0.980       2.248e-01         -0.3409
 347       4.229e+00      -7.196e+00       2.351e-01           0.203           0.063           0.977       1.906e-01         -0.1311
 348       4.393e+00      -7.197e+00       2.012e-01           0.200           0.063           0.978       1.445e-01          0.0163
 349       4.508e+00      -7.197e+00       1.779e-01           0.194           0.061           0.979       9.009e-02          0.1483
 350       4.568e+00      -7.197e+00       1.663e-01           0.193           0.061           0.979       3.062e-02          0.2327
Strip 14
 351       4.360e+00      -6.175e+00       1.410e-01          -0.057          -0.034          -0.998       3.373e-02          0.2840
 352       4.297e+00      -6.175e+00       1.439e-01          -0.041          -0.031          -0.999       9.915e-02          0.3314
 353       4.173e+00      -6.175e+00       1.417e-01           0.056          -0.011          -0.998       1.589e-01          0.3432
 354       3.997e+00      -6.175e+00       1.270e-01           0.104           0.000          -0.995       2.102e-01          0.2961
 355       3.779e+00      -6.175e+00       1.011e-01           0.129           0.006          -0.992       2.494e-01          0.2412
 356       3.531e+00      -6.175e+00       6.913e-02           0.126           0.005          -0.992       2.734e-01          0.1879
 357       3.268e+00      -6.175e+00       3.983e-02           0.095          -0.003          -0.995       2.806e-01          0.1540
 358       3.004e+00      -6.175e+00       2.381e-02           0.025          -0.023          -0.999       2.713e-01          0.1851
 359       2.756e+00      -6.175e+00       2.530e-02          -0.040          -0.043          -0.998       2.477e-01          0.2936
 360       2.538e+00      -6.175e+00       3.984e-02          -0.097          -0.061          -0.993       2.104e-01          0.4555
 361       2.362e+00      -6.175e+00       6.228e-02          -0.164          -0.082          -0.983       1.613e-01          0.6702
 362       2.239e+00      -6.175e+00       9.001e-02          -0.301          -0.128          -0.945       1.047e-01          0.8841
 363       2.175e+00      -6.175e+00       1.226e-01          -0.711          -0.263          -0.652       5.151e-02         -0.0212
 364       2.175e+00      -6.175e+00       1.663e-01          -0.818          -0.275           0.505       6.676e-02         -3.8805
 365       2.239e+00      -6.174e+00       2.164e-01          -0.448          -0.139           0.883       1.122e-01         -3.1188
 366       2.362e+00      -6.174e+00       2.634e-01          -0.288          -0.083           0.954       1.663e-01         -1.9878
 367       2.538e+00      -6.174e+00       3.056e-01          -0.189          -0.050           0.981       2.131e-01         -1.5889
 368       2.756e+00      -6.174e+00       3.367e-01          -0.100          -0.021           0.995       2.485e-01         -1.3821
 369       3.004e+00      -6.174e+00       3.491e-01          -0.005           0.007           1.000       2.711e-01         -1.1906
 370       3.268e+00      -6.174e+00       3.372e-01           0.094           0.035           0.995       2.806e-01         -0.9108
 371       3.531e+00      -6.174e+00       3.043e-01           0.155           0.052           0.987       2.747e-01         -0.6016
 372       3.779e+00      -6.174e+00       2.609e-01           0.190           0.060           0.980       2.523e-01         -0.3359
 373       3.997e+00      -6.174e+00       2.171e-01           0.203           0.063           0.977       2.139e-01         -0.1281
 374       4.173e+00      -6.175e+00       1.807e-01           0.200           0.063           0.978       1.622e-01          0.0180
 375       4.297e+00      -6.175e+00       1.558e-01           0.194           0.061           0.979       1.011e-01          0.1489
 376       4.360e+00      -6.175e+00       1.433e-01           0.192           0.061           0.979       3.436e-02          0.2328
Strip 15
 377       4.144e+00      -5.111e+00       1.170e-01          -0.057          -0.034          -0.998       3.746e-02          0.2839
 378       4.076e+00      -5.111e+00       1.201e-01          -0.041          -0.031          -0.999       1.101e-01          0.3310
 379       3.944e+00      -5.111e+00       1.176e-01           0.056          -0.011          -0.998       1.764e-01          0.3422
 380       3.756e+00      -5.111e+00       1.019e-01           0.104           0.000          -0.995       2.334e-01          0.2942
 381       3.522e+00      -5.111e+00       7.417e-02           0.129           0.006          -0.992       2.770e-01          0.2380
 382       3.256e+00      -5.111e+00       3.994e-02           0.126           0.005          -0.992       3.036e-01          0.1830
 383       2.974e+00      -5.111e+00       8.561e-03           0.095          -0.003          -0.995       3.116e-01          0.1466
 384       2.692e+00      -5.111e+00      -8.597e-03           0.025          -0.023          -0.999       3.013e-01          0.1753
 385       2.426e+00      -5.111e+00      -7.000e-03          -0.040          -0.043          -0.998       2.751e-01          0.2817
 386       2.193e+00      -5.111e+00       8.578e-03          -0.097          -0.061          -0.993       2.336e-01          0.4419
 387       2.004e+00      -5.111e+00       3.261e-02          -0.164          -0.082          -0.983       1.792e-01          0.6561
 388       1.872e+00      -5.111e+00       6.230e-02          -0.301          -0.128          -0.945       1.163e-01          0.8826
 389       1.804e+00      -5.111e+00       9.722e-02          -0.711          -0.263          -0.652       5.721e-02          0.0641
 390       1.804e+00      -5.111e+00       1.440e-01          -0.818          -0.275           0.505       7.413e-02         -3.6823
 391       1.872e+00      -5.110e+00       1.977e-01          -0.448          -0.139           0.883       1.246e-01         -3.0105
 392       2.004e+00      -5.110e+00       2.480e-01          -0.288          -0.083           0.954       1.847e-01         -1.9319
 393       2.193e+00      -5.110e+00       2.932e-01          -0.189          -0.050           0.981       2.367e-01         -1.5517
 394       2.426e+00      -5.110e+00       3.265e-01          -0.100          -0.021           0.995       2.760e-01         -1.3548
 395       2.692e+00      -5.110e+00       3.398e-01          -0.005           0.007           1.000       3.011e-01         -1.1703
 396       2.974e+00      -5.110e+00       3.270e-01           0.094           0.035           0.995       3.116e-01         -0.8966
 397       3.256e+00      -5.110e+00       2.917e-01           0.155           0.052           0.987       3.051e-01         -0.5921
 398       3.522e+00      -5.110e+00       2.453e-01           0.190           0.060           0.980       2.801e-01         -0.3300
 399       3.756e+00      -5.110e+00       1.984e-01           0.203           0.063           0.977       2.375e-01         -0.1246
 400       3.944e+00      -5.111e+00       1.595e-01           0.200           0.063           0.978       1.801e-01          0.0199
 401       4.076e+00      -5.111e+00       1.328e-01           0.194           0.061           0.979       1.123e-01          0.1497
 402       4.144e+00      -5.111e+00       1.194e-01           0.192           0.061           0.979       3.816e-02          0.2330
Strip 16
 403       3.921e+00      -4.012e+00       9.209e-02          -0.057          -0.034          -0.998       4.118e-02          0.2834
 404       3.849e+00      -4.012e+00       9.539e-02          -0.041          -0.031          -0.999       1.210e-01          0.3303
 405       3.708e+00      -4.012e+00       9.281e-02           0.056          -0.011          -0.998       1.939e-01          0.3409
 406       3.506e+00      -4.012e+00       7.600e-02           0.104           0.000          -0.995       2.566e-01          0.2919
 407       3.256e+00      -4.012e+00       4.637e-02           0.129           0.006          -0.992       3.044e-01          0.2342
 408       2.973e+00      -4.012e+00       9.793e-03           0.126           0.005          -0.992       3.337e-01          0.1770
 409       2.671e+00      -4.012e+00      -2.373e-02           0.095          -0.003          -0.995       3.425e-01          0.1378
 410       2.370e+00      -4.012e+00      -4.206e-02           0.025          -0.023          -0.999       3.312e-01          0.1635
 411       2.086e+00      -4.012e+00      -4.036e-02          -0.040          -0.043          -0.998       3.024e-01          0.2673
 412       1.836e+00      -4.012e+00      -2.371e-02          -0.097          -0.061          -0.993       2.568e-01          0.4252
 413       1.635e+00      -4.012e+00       1.960e-03          -0.164          -0.082          -0.983       1.970e-01          0.6385
 414       1.494e+00      -4.012e+00       3.369e-02          -0.301          -0.128          -0.945       1.279e-01          0.8788
 415       1.421e+00      -4.012e+00       7.099e-02          -0.711          -0.263          -0.653       6.290e-02          0.1614
 416       1.421e+00      -4.012e+00       1.209e-01          -0.818          -0.275           0.505       8.147e-02         -3.4478
 417       1.494e+00      -4.011e+00       1.784e-01          -0.448          -0.139           0.883       1.369e-01         -2.8805
 418       1.635e+00      -4.011e+00       2.321e-01          -0.288          -0.083           0.954       2.030e-01         -1.8646
 419       1.836e+00      -4.011e+00       2.804e-01          -0.189          -0.050           0.981       2.601e-01         -1.5069
 420       2.086e+00      -4.011e+00       3.159e-01          -0.100          -0.021           0.995       3.034e-01         -1.3220
 421       2.370e+00      -4.011e+00       3.302e-01          -0.005           0.007           1.000       3.309e-01         -1.1461
 422       2.671e+00      -4.011e+00       3.165e-01           0.094           0.035           0.995       3.425e-01         -0.8797
 423       2.973e+00      -4.011e+00       2.788e-01           0.155           0.052           0.987       3.354e-01         -0.5812
 424       3.256e+00      -4.011e+00       2.292e-01           0.190           0.060           0.980       3.079e-01         -0.3232
 425       3.506e+00      -4.011e+00       1.791e-01           0.203           0.063           0.977       2.611e-01         -0.1207
 426       3.708e+00      -4.012e+00       1.375e-01           0.200           0.063           0.978       1.980e-01          0.0220
 427       3.849e+00      -4.012e+00       1.090e-01           0.194           0.061           0.979       1.234e-01          0.1503
 428       3.921e+00      -4.012e+00       9.466e-02           0.192           0.061           0.979       4.195e-02          0.2327
Strip 17
 429       3.693e+00      -2.885e+00       6.660e-02          -0.057          -0.034          -0.998       4.481e-02          0.2829
 430       3.615e+00      -2.885e+00       7.012e-02          -0.041          -0.031          -0.999       1.317e-01          0.3294
 431       3.465e+00      -2.885e+00       6.736e-02           0.056          -0.011          -0.998       2.111e-01          0.3393
 432       3.250e+00      -2.885e+00       4.945e-02           0.104           0.000          -0.995       2.792e-01          0.2892
 433       2.984e+00      -2.885e+00       1.788e-02           0.129           0.006          -0.992       3.313e-01          0.2298
 434       2.682e+00      -2.885e+00      -2.110e-02           0.126           0.005          -0.992       3.631e-01          0.1701
 435       2.361e+00      -2.885e+00      -5.683e-02           0.095          -0.003          -0.995       3.727e-01          0.1274
 436       2.039e+00      -2.885e+00      -7.636e-02           0.025          -0.023          -0.999       3.604e-01          0.1494
 437       1.737e+00      -2.885e+00      -7.455e-02          -0.040          -0.043          -0.998       3.290e-01          0.2499
 438       1.471e+00      -2.885e+00      -5.681e-02          -0.097          -0.061          -0.993       2.795e-01          0.4047
 439       1.256e+00      -2.885e+00      -2.945e-02          -0.164          -0.082          -0.983       2.143e-01          0.6160
 440       1.106e+00      -2.885e+00       4.359e-03          -0.301          -0.128          -0.945       1.392e-01          0.8712
 441       1.028e+00      -2.885e+00       4.411e-02          -0.710          -0.263          -0.653       6.846e-02          0.2744
 442       1.028e+00      -2.885e+00       9.734e-02          -0.818          -0.275           0.505       8.865e-02         -3.1624
 443       1.106e+00      -2.885e+00       1.585e-01          -0.448          -0.139           0.883       1.490e-01         -2.7198
 444       1.256e+00      -2.885e+00       2.158e-01          -0.288          -0.083           0.954       2.209e-01         -1.7806
 445       1.471e+00      -2.885e+00       2.672e-01          -0.189          -0.050           0.981       2.831e-01         -1.4513
 446       1.737e+00      -2.885e+00       3.051e-01          -0.100          -0.021           0.995       3.301e-01         -1.2820
 447       2.039e+00      -2.885e+00       3.203e-01          -0.005           0.007           1.000       3.601e-01         -1.1173
 448       2.361e+00      -2.885e+00       3.058e-01           0.094           0.035           0.995       3.727e-01         -0.8604
 449       2.682e+00      -2.885e+00       2.656e-01           0.155           0.052           0.987       3.650e-01         -0.5692
 450       2.984e+00      -2.885e+00       2.128e-01           0.190           0.060           0.980       3.351e-01         -0.3163
 451       3.250e+00      -2.885e+00       1.594e-01           0.203           0.063           0.977       2.841e-01         -0.1169
 452       3.465e+00      -2.885e+00       1.150e-01           0.200           0.063           0.978       2.155e-01          0.0238
 453       3.615e+00      -2.885e+00       8.461e-02           0.193           0.061           0.979       1.343e-01          0.1507
 454       3.693e+00      -2.885e+00       6.933e-02           0.192           0.061           0.979       4.565e-02          0.2323
Strip 18
 455       3.460e+00      -1.739e+00       4.066e-02          -0.057          -0.034          -0.998       4.828e-02          0.2817
 456       3.378e+00      -1.739e+00       4.440e-02          -0.041          -0.031          -0.999       1.419e-01          0.3281
 457       3.218e+00      -1.739e+00       4.147e-02           0.056          -0.011          -0.998       2.274e-01          0.3374
 458       2.990e+00      -1.739e+00       2.244e-02           0.104           0.000          -0.995       3.008e-01          0.2861
 459       2.707e+00      -1.739e+00      -1.112e-02           0.129           0.006          -0.992       3.569e-01          0.2250
 460       2.386e+00      -1.739e+00      -5.254e-02           0.126           0.005          -0.992       3.912e-01          0.1626
 461       2.045e+00      -1.739e+00      -9.051e-02           0.095          -0.003          -0.995       4.015e-01          0.1161
 462       1.703e+00      -1.739e+00      -1.113e-01           0.025          -0.023          -0.999       3.883e-01          0.1337
 463       1.382e+00      -1.739e+00      -1.093e-01          -0.040          -0.043          -0.998       3.545e-01          0.2296
 464       1.099e+00      -1.739e+00      -9.049e-02          -0.097          -0.061          -0.993       3.011e-01          0.3794
 465       8.709e-01      -1.739e+00      -6.141e-02          -0.164          -0.082          -0.983       2.309e-01          0.5867
 466       7.112e-01      -1.739e+00      -2.548e-02          -0.301          -0.128          -0.945       1.500e-01          0.8576
 467       6.289e-01      -1.739e+00       1.676e-02          -0.710          -0.263          -0.653       7.377e-02          0.4134
 468       6.289e-01      -1.739e+00       7.333e-02          -0.818          -0.275           0.505       9.550e-02         -2.7883
 469       7.112e-01      -1.739e+00       1.383e-01          -0.448          -0.139           0.883       1.605e-01         -2.5020
 470       8.709e-01      -1.739e+00       1.992e-01          -0.288          -0.083           0.954       2.380e-01         -1.6658
 471       1.099e+00      -1.739e+00       2.539e-01          -0.189          -0.050           0.981       3.050e-01         -1.3765
 472       1.382e+00      -1.739e+00       2.942e-01          -0.100          -0.021           0.995       3.557e-01         -1.2307
 473       1.703e+00      -1.739e+00       3.103e-01          -0.005           0.007           1.000       3.880e-01         -1.0835
 474       2.045e+00      -1.739e+00       2.948e-01           0.094           0.035           0.995       4.016e-01         -0.8408
 475       2.386e+00      -1.739e+00       2.521e-01           0.155           0.052           0.987       3.933e-01         -0.5596
 476       2.707e+00      -1.739e+00       1.960e-01           0.190           0.060           0.980       3.611e-01         -0.3123
 477       2.990e+00      -1.739e+00       1.392e-01           0.203           0.063           0.977       3.061e-01         -0.1158
 478       3.218e+00      -1.739e+00       9.209e-02           0.200           0.063           0.978       2.322e-01          0.0235
 479       3.378e+00      -1.739e+00       5.980e-02           0.193           0.061           0.979       1.447e-01          0.1494
 480       3.460e+00      -1.739e+00       4.357e-02           0.192           0.061           0.979       4.918e-02          0.2305
Strip 19
 481       3.225e+00      -5.810e-01       1.445e-02          -0.057          -0.034          -0.998       5.151e-02          0.2796
 482       3.138e+00      -5.810e-01       1.841e-02          -0.041          -0.031          -0.999       1.514e-01          0.3259
 483       2.969e+00      -5.810e-01       1.531e-02           0.056          -0.011          -0.998       2.426e-01          0.3344
 484       2.727e+00      -5.810e-01      -4.859e-03           0.104           0.000          -0.995       3.209e-01          0.2804
 485       2.427e+00      -5.810e-01      -4.041e-02           0.129           0.006          -0.992       3.808e-01          0.2162
 486       2.087e+00      -5.810e-01      -8.430e-02           0.126           0.005          -0.992       4.174e-01          0.1518
 487       1.725e+00      -5.810e-01      -1.245e-01           0.095          -0.003          -0.995       4.283e-01          0.1050
 488       1.364e+00      -5.811e-01      -1.465e-01           0.025          -0.023          -0.999       4.143e-01          0.1227
 489       1.023e+00      -5.811e-01      -1.445e-01          -0.040          -0.043          -0.998       3.782e-01          0.2165
 490       7.233e-01      -5.810e-01      -1.245e-01          -0.097          -0.061          -0.993       3.213e-01          0.3609
 491       4.817e-01      -5.810e-01      -9.370e-02          -0.164          -0.082          -0.983       2.464e-01          0.5596
 492       3.124e-01      -5.810e-01      -5.563e-02          -0.301          -0.128          -0.945       1.600e-01          0.8383
 493       2.253e-01      -5.810e-01      -1.087e-02          -0.710          -0.263          -0.653       7.871e-02          0.6003
 494       2.253e-01      -5.810e-01       4.907e-02          -0.819          -0.275           0.505       1.019e-01         -2.1927
 495       3.124e-01      -5.810e-01       1.180e-01          -0.448          -0.139           0.883       1.712e-01         -2.1123
 496       4.817e-01      -5.809e-01       1.825e-01          -0.288          -0.083           0.954       2.539e-01         -1.4445
 497       7.233e-01      -5.809e-01       2.404e-01          -0.189          -0.050           0.981       3.254e-01         -1.2365
 498       1.023e+00      -5.809e-01       2.831e-01          -0.100          -0.021           0.995       3.795e-01         -1.1514
 499       1.364e+00      -5.809e-01       3.002e-01          -0.005           0.007           1.000       4.139e-01         -1.0472
 500       1.725e+00      -5.809e-01       2.838e-01           0.094           0.035           0.995       4.284e-01         -0.8366
 501       2.087e+00      -5.809e-01       2.385e-01           0.155           0.052           0.987       4.196e-01         -0.5729
 502       2.427e+00      -5.809e-01       1.790e-01           0.190           0.060           0.980       3.852e-01         -0.3299
 503       2.727e+00      -5.810e-01       1.189e-01           0.203           0.063           0.977       3.266e-01         -0.1306
 504       2.969e+00      -5.810e-01       6.895e-02           0.200           0.063           0.978       2.477e-01          0.0132
 505       3.138e+00      -5.810e-01       3.473e-02           0.193           0.061           0.979       1.544e-01          0.1427
 506       3.225e+00      -5.810e-01       1.753e-02           0.192           0.061           0.979       5.247e-02          0.2255
Strip 20
 507       3.225e+00       5.810e-01       1.445e-02          -0.057           0.034          -0.998       5.151e-02          0.2796
 508       3.138e+00       5.810e-01       1.841e-02          -0.041           0.031          -0.999       1.514e-01          0.3259
 509       2.969e+00       5.810e-01       1.531e-02           0.056           0.011          -0.998       2.426e-01          0.3344
 510       2.727e+00       5.810e-01      -4.859e-03           0.104          -0.000          -0.995       3.209e-01          0.2804
 511       2.427e+00       5.810e-01      -4.041e-02           0.129          -0.006          -0.992       3.808e-01          0.2162
 512       2.087e+00       5.810e-01      -8.430e-02           0.126          -0.005          -0.992       4.174e-01          0.1518
 513       1.725e+00       5.810e-01      -1.245e-01           0.095           0.003          -0.995       4.283e-01          0.1050
 514       1.364e+00       5.811e-01      -1.465e-01           0.025           0.023          -0.999       4.143e-01          0.1227
 515       1.023e+00       5.811e-01      -1.445e-01          -0.040           0.043          -0.998       3.782e-01          0.2165
 516       7.233e-01       5.810e-01      -1.245e-01          -0.097           0.061          -0.993       3.213e-01          0.3609
 517       4.817e-01       5.810e-01      -9.370e-02          -0.164           0.082          -0.983       2.464e-01          0.5596
 518       3.124e-01       5.810e-01      -5.563e-02          -0.301           0.128          -0.945       1.600e-01          0.8383
 519       2.253e-01       5.810e-01      -1.087e-02          -0.710           0.263          -0.653       7.871e-02          0.6003
 520       2.253e-01       5.810e-01       4.907e-02          -0.819           0.275           0.505       1.019e-01         -2.1927
 521       3.124e-01       5.810e-01       1.180e-01          -0.448           0.139           0.883       1.712e-01         -2.1123
 522       4.817e-01       5.809e-01       1.825e-01          -0.288           0.083           0.954       2.539e-01         -1.4445
 523       7.233e-01       5.809e-01       2.404e-01          -0.189           0.050           0.981       3.254e-01         -1.2365
 524       1.023e+00       5.809e-01       2.831e-01          -0.100           0.021           0.995       3.795e-01         -1.1514
 525       1.364e+00       5.809e-01       3.002e-01          -0.005          -0.007           1.000       4.139e-01         -1.0472
 526       1.725e+00       5.809e-01       2.838e-01           0.094          -0.035           0.995       4.284e-01         -0.8366
 527       2.087e+00       5.809e-01       2.385e-01           0.155          -0.052           0.987       4.196e-01         -0.5729
 528       2.427e+00       5.809e-01       1.790e-01           0.190          -0.060           0.980       3.852e-01         -0.3299
 529       2.727e+00       5.810e-01       1.189e-01           0.203          -0.063           0.977       3.266e-01         -0.1306
 530       2.969e+00       5.810e-01       6.895e-02           0.200          -0.063           0.978       2.477e-01          0.0132
 531       3.138e+00       5.810e-01       3.473e-02           0.193          -0.061           0.979       1.544e-01          0.1427
 532       3.225e+00       5.810e-01       1.753e-02           0.192          -0.061           0.979       5.247e-02          0.2255
Strip 21
 533       3.460e+00       1.739e+00       4.066e-02          -0.057           0.034          -0.998       4.828e-02          0.2817
 534       3.378e+00       1.739e+00       4.440e-02          -0.041           0.031          -0.999       1.419e-01          0.3281
 535       3.218e+00       1.739e+00       4.147e-02           0.056           0.011          -0.998       2.274e-01          0.3374
 536       2.990e+00       1.739e+00       2.244e-02           0.104          -0.000          -0.995       3.008e-01          0.2861
 537       2.707e+00       1.739e+00      -1.112e-02           0.129          -0.006          -0.992       3.569e-01          0.2250
 538       2.386e+00       1.739e+00      -5.254e-02           0.126          -0.005          -0.992       3.912e-01          0.1626
 539       2.045e+00       1.739e+00      -9.051e-02           0.095           0.003          -0.995       4.015e-01          0.1161
 540       1.703e+00       1.739e+00      -1.113e-01           0.025           0.023          -0.999       3.883e-01          0.1337
 541       1.382e+00       1.739e+00      -1.093e-01          -0.040           0.043          -0.998       3.545e-01          0.2296
 542       1.099e+00       1.739e+00      -9.049e-02          -0.097           0.061          -0.993       3.011e-01          0.3794
 543       8.709e-01       1.739e+00      -6.141e-02          -0.164           0.082          -0.983       2.309e-01          0.5867
 544       7.112e-01       1.739e+00      -2.548e-02          -0.301           0.128          -0.945       1.500e-01          0.8576
 545       6.289e-01       1.739e+00       1.676e-02          -0.710           0.263          -0.653       7.377e-02          0.4134
 546       6.289e-01       1.739e+00       7.333e-02          -0.818           0.275           0.505       9.550e-02         -2.7883
 547       7.112e-01       1.739e+00       1.383e-01          -0.448           0.139           0.883       1.605e-01         -2.5020
 548       8.709e-01       1.739e+00       1.992e-01          -0.288           0.083           0.954       2.380e-01         -1.6658
 549       1.099e+00       1.739e+00       2.539e-01          -0.189           0.050           0.981       3.050e-01         -1.3765
 550       1.382e+00       1.739e+00       2.942e-01          -0.100           0.021           0.995       3.557e-01         -1.2307
 551       1.703e+00       1.739e+00       3.103e-01          -0.005          -0.007           1.000       3.880e-01         -1.0835
 552       2.045e+00       1.739e+00       2.948e-01           0.094          -0.035           0.995       4.016e-01         -0.8408
 553       2.386e+00       1.739e+00       2.521e-01           0.155          -0.052           0.987       3.933e-01         -0.5596
 554       2.707e+00       1.739e+00       1.960e-01           0.190          -0.060           0.980       3.611e-01         -0.3123
 555       2.990e+00       1.739e+00       1.392e-01           0.203          -0.063           0.977       3.061e-01         -0.1158
 556       3.218e+00       1.739e+00       9.209e-02           0.200          -0.063           0.978       2.322e-01          0.0235
 557       3.378e+00       1.739e+00       5.980e-02           0.193          -0.061           0.979       1.447e-01          0.1494
 558       3.460e+00       1.739e+00       4.357e-02           0.192          -0.061           0.979       4.918e-02          0.2305
Strip 22
 559       3.693e+00       2.885e+00       6.660e-02          -0.057           0.034          -0.998       4.481e-02          0.2829
 560       3.615e+00       2.885e+00       7.012e-02          -0.041           0.031          -0.999       1.317e-01          0.3294
 561       3.465e+00       2.885e+00       6.736e-02           0.056           0.011          -0.998       2.111e-01          0.3393
 562       3.250e+00       2.885e+00       4.945e-02           0.104          -0.000          -0.995       2.792e-01          0.2892
 563       2.984e+00       2.885e+00       1.788e-02           0.129          -0.006          -0.992       3.313e-01          0.2298
 564       2.682e+00       2.885e+00      -2.110e-02           0.126          -0.005          -0.992       3.631e-01          0.1701
 565       2.361e+00       2.885e+00      -5.683e-02           0.095           0.003          -0.995       3.727e-01          0.1274
 566       2.039e+00       2.885e+00      -7.636e-02           0.025           0.023          -0.999       3.604e-01          0.1494
 567       1.737e+00       2.885e+00      -7.455e-02          -0.040           0.043          -0.998       3.290e-01          0.2499
 568       1.471e+00       2.885e+00      -5.681e-02          -0.097           0.061          -0.993       2.795e-01          0.4047
[...]
 852       4.898e+00       1.263e+01       2.204e-01           0.025           0.023          -0.999       7.556e-02          0.1756
 853       4.756e+00       1.263e+01       2.212e-01          -0.040           0.043          -0.998       6.896e-02          0.2899
 854       4.632e+00       1.263e+01       2.295e-01          -0.097           0.061          -0.993       5.856e-02          0.4584
 855       4.532e+00       1.263e+01       2.423e-01          -0.164           0.083          -0.983       4.489e-02          0.6781
 856       4.462e+00       1.263e+01       2.581e-01          -0.301           0.128          -0.945       2.913e-02          0.8775
 857       4.425e+00       1.263e+01       2.767e-01          -0.712           0.264          -0.651       1.432e-02         -0.1543
 858       4.425e+00       1.263e+01       3.015e-01          -0.817           0.274           0.508       1.862e-02         -4.1456
 859       4.462e+00       1.263e+01       3.301e-01          -0.447           0.138           0.884       3.129e-02         -3.2488
 860       4.532e+00       1.263e+01       3.568e-01          -0.288           0.083           0.954       4.637e-02         -2.0440
 861       4.632e+00       1.263e+01       3.809e-01          -0.188           0.050           0.981       5.940e-02         -1.6143
 862       4.756e+00       1.263e+01       3.986e-01          -0.099           0.021           0.995       6.924e-02         -1.3896
 863       4.898e+00       1.263e+01       4.057e-01          -0.005          -0.007           1.000       7.549e-02         -1.1869
 864       5.048e+00       1.263e+01       3.989e-01           0.094          -0.035           0.995       7.810e-02         -0.9010
 865       5.198e+00       1.263e+01       3.801e-01           0.155          -0.052           0.987       7.647e-02         -0.5899
 866       5.339e+00       1.263e+01       3.554e-01           0.190          -0.060           0.980       7.020e-02         -0.3256
 867       5.463e+00       1.263e+01       3.305e-01           0.204          -0.063           0.977       5.952e-02         -0.1205
 868       5.564e+00       1.263e+01       3.098e-01           0.201          -0.063           0.978       4.514e-02          0.0227
 869       5.634e+00       1.263e+01       2.956e-01           0.194          -0.061           0.979       2.814e-02          0.1507
 870       5.670e+00       1.263e+01       2.884e-01           0.193          -0.061           0.979       9.563e-03          0.2330
Strip 34
 871       5.765e+00       1.310e+01       2.977e-01          -0.057           0.034          -0.998       7.348e-03          0.2676
 872       5.731e+00       1.310e+01       2.993e-01          -0.041           0.031          -0.999       2.160e-02          0.3105
 873       5.664e+00       1.310e+01       2.981e-01           0.056           0.011          -0.998       3.462e-02          0.3163
 874       5.569e+00       1.310e+01       2.902e-01           0.104          -0.000          -0.995       4.581e-02          0.2638
 875       5.452e+00       1.310e+01       2.762e-01           0.129          -0.006          -0.992       5.436e-02          0.2037
 876       5.318e+00       1.310e+01       2.590e-01           0.126          -0.005          -0.992       5.959e-02          0.1464
 877       5.176e+00       1.310e+01       2.432e-01           0.095           0.003          -0.995       6.115e-02          0.1104
 878       5.035e+00       1.310e+01       2.346e-01           0.025           0.023          -0.999       5.912e-02          0.1429
 879       4.901e+00       1.310e+01       2.354e-01          -0.040           0.043          -0.998       5.396e-02          0.2566
 880       4.784e+00       1.310e+01       2.432e-01          -0.097           0.061          -0.993       4.582e-02          0.4261
 881       4.689e+00       1.310e+01       2.553e-01          -0.164           0.083          -0.983       3.512e-02          0.6492
 882       4.622e+00       1.310e+01       2.702e-01          -0.301           0.128          -0.945       2.279e-02          0.8721
 883       4.588e+00       1.310e+01       2.878e-01          -0.712           0.264          -0.650       1.120e-02         -0.0269
 884       4.588e+00       1.310e+01       3.113e-01          -0.816           0.274           0.508       1.457e-02         -3.8453
 885       4.622e+00       1.310e+01       3.383e-01          -0.447           0.138           0.884       2.449e-02         -3.0787
 886       4.689e+00       1.310e+01       3.636e-01          -0.288           0.083           0.954       3.629e-02         -1.9474
 887       4.784e+00       1.310e+01       3.863e-01          -0.188           0.050           0.981       4.648e-02         -1.5400
 888       4.901e+00       1.310e+01       4.030e-01          -0.099           0.021           0.995       5.418e-02         -1.3255
 889       5.035e+00       1.310e+01       4.097e-01          -0.005          -0.007           1.000       5.907e-02         -1.1309
 890       5.176e+00       1.310e+01       4.033e-01           0.094          -0.035           0.995       6.111e-02         -0.8553
 891       5.318e+00       1.310e+01       3.856e-01           0.155          -0.052           0.987       5.983e-02         -0.5556
 892       5.452e+00       1.310e+01       3.622e-01           0.190          -0.060           0.980       5.493e-02         -0.3020
 893       5.569e+00       1.310e+01       3.387e-01           0.204          -0.063           0.977       4.657e-02         -0.1060
 894       5.664e+00       1.310e+01       3.191e-01           0.201          -0.063           0.978       3.532e-02          0.0302
 895       5.731e+00       1.310e+01       3.057e-01           0.194          -0.061           0.979       2.202e-02          0.1523
 896       5.765e+00       1.310e+01       2.989e-01           0.193          -0.061           0.979       7.482e-03          0.2314
Strip 35
 897       5.841e+00       1.347e+01       3.063e-01          -0.057           0.034          -0.998       5.499e-03          0.2480
 898       5.809e+00       1.347e+01       3.077e-01          -0.041           0.031          -0.999       1.616e-02          0.2871
 899       5.745e+00       1.347e+01       3.066e-01           0.056           0.011          -0.998       2.591e-02          0.2879
 900       5.655e+00       1.348e+01       2.990e-01           0.104          -0.000          -0.995       3.428e-02          0.2308
 901       5.543e+00       1.348e+01       2.858e-01           0.129          -0.006          -0.992       4.068e-02          0.1657
 902       5.416e+00       1.348e+01       2.694e-01           0.126          -0.005          -0.992       4.459e-02          0.1028
 903       5.281e+00       1.348e+01       2.543e-01           0.095           0.003          -0.995       4.576e-02          0.0605
 904       5.145e+00       1.348e+01       2.461e-01           0.025           0.023          -0.999       4.424e-02          0.0879
 905       5.018e+00       1.348e+01       2.469e-01          -0.040           0.043          -0.998       4.037e-02          0.1996
 906       4.906e+00       1.348e+01       2.543e-01          -0.097           0.061          -0.993       3.428e-02          0.3703
 907       4.816e+00       1.348e+01       2.658e-01          -0.164           0.083          -0.983       2.628e-02          0.5985
 908       4.752e+00       1.348e+01       2.801e-01          -0.301           0.128          -0.945       1.705e-02          0.8545
 909       4.720e+00       1.348e+01       2.968e-01          -0.713           0.264          -0.650       8.377e-03          0.1508
 910       4.720e+00       1.347e+01       3.192e-01          -0.816           0.274           0.509       1.091e-02         -3.4019
 911       4.752e+00       1.347e+01       3.449e-01          -0.447           0.138           0.884       1.833e-02         -2.8230
 912       4.816e+00       1.347e+01       3.691e-01          -0.288           0.083           0.954       2.716e-02         -1.7973
 913       4.906e+00       1.347e+01       3.907e-01          -0.188           0.050           0.981       3.478e-02         -1.4212
 914       5.018e+00       1.347e+01       4.066e-01          -0.099           0.021           0.995       4.054e-02         -1.2208
 915       5.145e+00       1.347e+01       4.130e-01          -0.005          -0.007           1.000       4.420e-02         -1.0385
 916       5.281e+00       1.347e+01       4.069e-01           0.094          -0.035           0.995       4.573e-02         -0.7803
 917       5.416e+00       1.347e+01       3.900e-01           0.155          -0.052           0.987       4.476e-02         -0.5013
 918       5.543e+00       1.347e+01       3.678e-01           0.190          -0.060           0.980       4.110e-02         -0.2675
 919       5.655e+00       1.347e+01       3.453e-01           0.204          -0.063           0.977       3.484e-02         -0.0886
 920       5.745e+00       1.347e+01       3.266e-01           0.201          -0.063           0.978       2.643e-02          0.0345
 921       5.809e+00       1.347e+01       3.138e-01           0.194          -0.061           0.979       1.647e-02          0.1465
 922       5.841e+00       1.347e+01       3.074e-01           0.193          -0.061           0.979       5.599e-03          0.2203
Strip 36
 923       5.899e+00       1.376e+01       3.127e-01          -0.057           0.034          -0.998       3.808e-03          0.1867
 924       5.868e+00       1.376e+01       3.141e-01          -0.041           0.031          -0.999       1.119e-02          0.2204
 925       5.807e+00       1.376e+01       3.130e-01           0.056           0.011          -0.998       1.794e-02          0.2156
 926       5.720e+00       1.376e+01       3.058e-01           0.104          -0.000          -0.995       2.374e-02          0.1568
 927       5.612e+00       1.376e+01       2.930e-01           0.129          -0.006          -0.992       2.817e-02          0.0921
 928       5.489e+00       1.376e+01       2.772e-01           0.126          -0.005          -0.992       3.088e-02          0.0295
 929       5.359e+00       1.376e+01       2.627e-01           0.095           0.003          -0.995       3.169e-02         -0.0160
 930       5.229e+00       1.376e+01       2.548e-01           0.025           0.023          -0.999       3.064e-02          0.0036
 931       5.106e+00       1.376e+01       2.555e-01          -0.040           0.043          -0.998       2.796e-02          0.1064
 932       4.998e+00       1.376e+01       2.627e-01          -0.097           0.061          -0.993       2.374e-02          0.2729
 933       4.911e+00       1.376e+01       2.738e-01          -0.164           0.083          -0.983       1.820e-02          0.5059
 934       4.851e+00       1.376e+01       2.875e-01          -0.301           0.128          -0.945       1.181e-02          0.8038
 935       4.819e+00       1.376e+01       3.036e-01          -0.713           0.264          -0.650       5.801e-03          0.3575
 936       4.819e+00       1.376e+01       3.252e-01          -0.816           0.274           0.509       7.556e-03         -2.8162
 937       4.851e+00       1.376e+01       3.500e-01          -0.447           0.138           0.884       1.270e-02         -2.4740
 938       4.911e+00       1.376e+01       3.732e-01          -0.288           0.083           0.954       1.881e-02         -1.5815
 939       4.998e+00       1.376e+01       3.940e-01          -0.188           0.050           0.981       2.409e-02         -1.2436
 940       5.106e+00       1.376e+01       4.094e-01          -0.099           0.021           0.995       2.808e-02         -1.0626
 941       5.229e+00       1.376e+01       4.155e-01          -0.005          -0.007           1.000       3.061e-02         -0.9025
 942       5.359e+00       1.376e+01       4.096e-01           0.094          -0.035           0.995       3.167e-02         -0.6780
 943       5.489e+00       1.376e+01       3.934e-01           0.155          -0.052           0.987       3.100e-02         -0.4391
 944       5.612e+00       1.376e+01       3.719e-01           0.190          -0.060           0.980       2.846e-02         -0.2439
 945       5.720e+00       1.376e+01       3.503e-01           0.204          -0.063           0.977       2.413e-02         -0.0979
 946       5.807e+00       1.376e+01       3.323e-01           0.201          -0.063           0.978       1.830e-02          0.0008
 947       5.868e+00       1.376e+01       3.200e-01           0.194          -0.061           0.979       1.141e-02          0.0961
 948       5.899e+00       1.376e+01       3.138e-01           0.193          -0.061           0.979       3.877e-03          0.1619
Strip 37
 949       5.938e+00       1.395e+01       3.170e-01          -0.057           0.034          -0.998       2.236e-03         -0.1111
 950       5.907e+00       1.395e+01       3.184e-01          -0.041           0.031          -0.999       6.573e-03         -0.0853
 951       5.848e+00       1.395e+01       3.173e-01           0.056           0.011          -0.998       1.054e-02         -0.0716
 952       5.763e+00       1.395e+01       3.103e-01           0.104          -0.000          -0.995       1.394e-02         -0.0796
 953       5.658e+00       1.395e+01       2.978e-01           0.129          -0.006          -0.992       1.654e-02         -0.0866
 954       5.539e+00       1.395e+01       2.824e-01           0.126          -0.005          -0.992       1.814e-02         -0.1033
 955       5.412e+00       1.395e+01       2.683e-01           0.095           0.003          -0.995       1.861e-02         -0.1219
 956       5.285e+00       1.395e+01       2.606e-01           0.025           0.023          -0.999       1.799e-02         -0.1001
 957       5.166e+00       1.395e+01       2.613e-01          -0.040           0.043          -0.998       1.642e-02         -0.0197
 958       5.060e+00       1.395e+01       2.683e-01          -0.097           0.061          -0.993       1.394e-02          0.1111
 959       4.976e+00       1.395e+01       2.791e-01          -0.164           0.083          -0.983       1.069e-02          0.3195
 960       4.916e+00       1.395e+01       2.925e-01          -0.301           0.128          -0.945       6.932e-03          0.6516
 961       4.886e+00       1.395e+01       3.082e-01          -0.713           0.264          -0.650       3.406e-03          0.5184
 962       4.886e+00       1.395e+01       3.292e-01          -0.816           0.274           0.509       4.437e-03         -2.1281
 963       4.916e+00       1.395e+01       3.533e-01          -0.447           0.138           0.884       7.456e-03         -2.0350
 964       4.976e+00       1.395e+01       3.759e-01          -0.288           0.083           0.954       1.105e-02         -1.2858
 965       5.060e+00       1.395e+01       3.963e-01          -0.188           0.050           0.981       1.415e-02         -0.9993
 966       5.166e+00       1.395e+01       4.112e-01          -0.099           0.021           0.995       1.649e-02         -0.8597
 967       5.285e+00       1.395e+01       4.172e-01          -0.005          -0.007           1.000       1.797e-02         -0.7471
 968       5.412e+00       1.395e+01       4.115e-01           0.094          -0.035           0.995       1.859e-02         -0.5885
 969       5.539e+00       1.395e+01       3.956e-01           0.155          -0.052           0.987       1.820e-02         -0.4372
 970       5.658e+00       1.395e+01       3.747e-01           0.190          -0.060           0.980       1.671e-02         -0.3450
 971       5.763e+00       1.395e+01       3.537e-01           0.204          -0.063           0.977       1.417e-02         -0.3036
 972       5.848e+00       1.395e+01       3.362e-01           0.201          -0.063           0.978       1.075e-02         -0.2879
 973       5.907e+00       1.395e+01       3.242e-01           0.194          -0.061           0.979       6.699e-03         -0.2366
 974       5.938e+00       1.395e+01       3.181e-01           0.193          -0.061           0.979       2.277e-03         -0.1863
Strip 38
 975       5.957e+00       1.405e+01       3.192e-01          -0.057           0.034          -0.998       7.371e-04         -0.4896
 976       5.927e+00       1.405e+01       3.206e-01          -0.041           0.031          -0.999       2.167e-03         -0.5060
 977       5.869e+00       1.405e+01       3.195e-01           0.056           0.011          -0.998       3.474e-03         -0.5031
 978       5.785e+00       1.405e+01       3.125e-01           0.104          -0.000          -0.995       4.596e-03         -0.4429
 979       5.681e+00       1.405e+01       3.002e-01           0.129          -0.006          -0.992       5.454e-03         -0.3474
 980       5.564e+00       1.405e+01       2.851e-01           0.126          -0.005          -0.992       5.979e-03         -0.2695
 981       5.438e+00       1.405e+01       2.711e-01           0.095           0.003          -0.995       6.135e-03         -0.2165
 982       5.313e+00       1.405e+01       2.635e-01           0.025           0.023          -0.999       5.931e-03         -0.1606
 983       5.195e+00       1.405e+01       2.642e-01          -0.040           0.043          -0.998       5.412e-03         -0.0857
 984       5.092e+00       1.405e+01       2.711e-01          -0.097           0.061          -0.993       4.596e-03          0.0097
 985       5.008e+00       1.405e+01       2.818e-01          -0.164           0.083          -0.983       3.523e-03          0.1603
 986       4.949e+00       1.405e+01       2.950e-01          -0.301           0.128          -0.945       2.285e-03          0.4581
 987       4.919e+00       1.405e+01       3.105e-01          -0.713           0.264          -0.650       1.123e-03          0.6355
 988       4.919e+00       1.405e+01       3.312e-01          -0.816           0.274           0.509       1.463e-03         -1.4145
 989       4.949e+00       1.405e+01       3.550e-01          -0.447           0.138           0.884       2.458e-03         -1.5448
 990       5.008e+00       1.405e+01       3.773e-01          -0.288           0.083           0.954       3.642e-03         -0.9792
 991       5.092e+00       1.405e+01       3.974e-01          -0.188           0.050           0.981       4.664e-03         -0.7792
 992       5.195e+00       1.405e+01       4.121e-01          -0.099           0.021           0.995       5.435e-03         -0.6876
 993       5.313e+00       1.405e+01       4.181e-01          -0.005          -0.007           1.000       5.925e-03         -0.6062
 994       5.438e+00       1.405e+01       4.124e-01           0.094          -0.035           0.995       6.130e-03         -0.4909
 995       5.564e+00       1.405e+01       3.967e-01           0.155          -0.052           0.987       6.001e-03         -0.4064
 996       5.681e+00       1.405e+01       3.761e-01           0.190          -0.060           0.980       5.509e-03         -0.4071
 997       5.785e+00       1.405e+01       3.553e-01           0.204          -0.063           0.977       4.671e-03         -0.4906
 998       5.869e+00       1.405e+01       3.381e-01           0.201          -0.063           0.978       3.543e-03         -0.6145
 999       5.927e+00       1.405e+01       3.262e-01           0.194          -0.061           0.979       2.208e-03         -0.6576
1000       5.957e+00       1.405e+01       3.203e-01           0.193          -0.061           0.979       7.505e-04         -0.6458










